SOLUTION_MASTER_SPECIES
E            e-             0       0               0.0
H            H3O+           -1      H               1.008
H(0)         H2             0       H
H(1)         H3O+           -1      H
D            D2O            0       D               2
D(1)         D2O            0       D  
D(0)         HD             0       D  
T            HTO            0       T               3
T(1)         HTO            0       T
T(0)         HT             0       T
O            H2O            0       O               16.00
O(0)         O2             0       O
O(-2)        H2O            0       O
[18O]        H2[18O]        0       [18O]           18
[18O](-2)    H2[18O]        0       [18O]           18
[18O](0)     O[18O]         0       [18O]           18
Ca           Ca+2           0       Ca              40.08
Mg           Mg+2           0       Mg              24.312
Na           Na+            0       Na              22.9898
K            K+             0       K               39.102
Cl           Cl-            0       Cl              35.453
C            CO2            0       HCO3            12.0111
C(4)         CO2            0       HCO3
C(-4)        CH4            0       CH4
[13C]        [13C]O2        0       [13C]           13
[13C](4)     [13C]O2        0       [13C]      
[13C](-4)    [13C]H4        0       [13C]
[14C]        [14C]O2        0       [14C]           14
[14C](4)     [14C]O2        0       [14C]     
[14C](-4)    [14C]H4        0       [14C]     
S            SO4-2          0       S               31.972
S(6)         SO4-2          0       SO4
S(-2)        HS-            1       S
[34S]        [34S]O4-2      0       [34S]           33.967
[34S](6)     [34S]O4-2      0       [34S]
[34S](-2)    H[34S]-        0       [34S]
N            NO3-           0       N               14.0067
N(+5)        NO3-           0       N
N(+3)        NO2-           0       N
N(0)         N2             0       N
N(-3)        NH4+           0       N
[15N]        [15N]O3-       0       [15N]           15.00010897312
[15N](5)     [15N]O3-       0       [15N]
[15N](3)     [15N]O2-       0       [15N]
[15N](0)     N[15N]         0       [15N]
[15N](-3)    [15N]H4+       0       [15N]

ISOTOPES
H
        -isotope        D       permil  155.76e-6               # VSMOW (Clark and Fritz, 1997)
        -isotope        T       TU      1e-18                   # Solomon and Cook, in eds, Cook and Herczeg, 2000
H(0)
        -isotope        D(0)    permil  155.76e-6               # VSMOW (Clark and Fritz, 1997)
        -isotope        T(0)    TU      1e-18                   # Solomon and Cook, in eds, Cook and Herczeg, 2000
                                                                # 1 THO in 10^18 H2O
#       -isotope        T       pCi/L   3.125e-18               # 1e-18/3.2 = T/mol H2O
C       
        -isotope        [13C]   permil  0.0111802               # VPDB, Vienna Pee Dee Belemnite
                                                                # Chang and Li, 1990, Chinese Science Bulletin
        -isotope        [13C](4)        permil  0.0111802       # VPDB, Vienna Pee Dee Belemnite
                                                                # Chang and Li, 1990, Chinese Science Bulletin
        -isotope        [13C](-4)       permil  0.0111802       # VPDB, Vienna Pee Dee Belemnite
        -isotope        [14C]           pmc     1.175887709e-12 # Mole fraction of 14C in Modern Carbon
        -isotope        [14C](4)        pmc     1.175887709e-12 # Mole fraction of 14C in Modern Carbon
                                                                # 13.56 Modern Carbon dpm (Kalin, in eds, Cook and Herczeg, 2000)
        -isotope        [14C](-4)       pmc     1.175887709e-12 # Mole fraction of 14C in Modern Carbon
C(4)    
        -isotope        [13C](4)        permil  0.0111802       # VPDB, Vienna Pee Dee Belemnite
                                                                # Chang and Li, 1990, Chinese Science Bulletin
        -isotope        [14C](4)        pmc     1.175887709e-12 # Mole fraction of 14C in Modern Carbon
                                                                # 13.56 Modern Carbon dpm (Kalin, in eds, Cook and Herczeg, 2000)
                                                                # 13.56 Modern Carbon dpm (Kalin, in eds, Cook and Herczeg, 2000)
C(-4)    
        -isotope        [13C](-4)       permil  0.0111802       # VPDB, Vienna Pee Dee Belemnite
        -isotope        [14C](-4)       pmc     1.175887709e-12 # Mole fraction of 14C in Modern Carbon
        # 14C calculation
        #
        # lambda = ln(2)/(5730 yrs * 3.15576e7 sec/yr)
        # mole/g carbon = -(dn/dt)/lambda = 0.226 dps / 3.8332476e-12 / 6.022136736e23 
        # mole C/g C NBS Oxalic Acid with 13C = -19.3:  0.08325783313
        # mole 14C/mol Modern Carbon mol/g carbon/ (mole C/g C) = 1.175887709e-12
        #
O
        -isotope        [18O]           permil  2005.2e-6       # VSMOW (Clark and Fritz, 1997)
        -isotope        [18O](0)        permil  2005.2e-6       # VSMOW (Clark and Fritz, 1997)
O(0)
        -isotope        [18O](0)        permil  2005.2e-6       # VSMOW (Clark and Fritz, 1997)

S
                                                            # Coplen and others, 2002
        -isotope        [34S]           permil  0.04416264  # VCDT, Vienna Canyon Diablo Troilite
        -isotope        [34S](6)        permil  0.04416264  # VCDT
        -isotope        [34S](-2)       permil  0.04416264  # VCDT
S(6)
        -isotope        [34S](6)        permil  0.04416264  # VCDT
S(-2)
        -isotope        [34S](-2)       permil  0.04416264  # VCDT
N
                                                             # Coplen and others, 2002
        -isotope        [15N]           permil  0.003676867  # Air
        -isotope        [15N](5)        permil  0.003676867  # Air
        -isotope        [15N](3)        permil  0.003676867  # Air
        -isotope        [15N](0)        permil  0.003676867  # Air
        -isotope        [15N](-3)       permil  0.003676867  # Air
N(5)
        -isotope        [15N](5)        permil  0.003676867  # Air
N(3)
        -isotope        [15N](3)        permil  0.003676867  # Air
N(0)
        -isotope        [15N](0)        permil  0.003676867  # Air
N(-3)
        -isotope        [15N](-3)       permil  0.003676867  # Air


ISOTOPE_RATIOS
#
#  aqueous
#
        R(D)                    D
        R(T)                    T
        R(18O)                  [18O]
        R(13C)                  [13C]
        R(14C)                  [14C]
        R(15N)                  [15N]
        R(34S)                  [34S]
        R(13C)_CH4(aq)          [13C]
        R(13C)_CO2(aq)          [13C]
        R(13C)_CO3-2            [13C]
        R(13C)_HCO3-            [13C]
        R(15N)_N2               [15N]
        R(15N)_NH3              [15N]
        R(15N)_NH4+             [15N]
        R(15N)_NO3-             [15N]
        R(18O)_CO2(aq)          [18O]
        R(18O)_CO3-2            [18O]
        R(18O)_H2O(l)           [18O]
        R(18O)_H3O+             [18O]
        R(18O)_HCO3-            [18O]
        R(18O)_O2(aq)           [18O]
        R(18O)_OH-              [18O]
        R(34S)_H2S(aq)          [34S]
        R(34S)_HS-              [34S]
        R(34S)_HSO4-            [34S]
        R(34S)_SO4-2            [34S]
        R(D)_CH4(aq)            D
        R(D)_H2(aq)             D
        R(D)_H2O(l)             D
        R(D)_H2S(aq)            D
        R(D)_H3O+               D
        R(D)_HCO3-              D
        R(D)_HS-                D
        R(D)_HSO4-              D
        R(D)_NH3                D
        R(D)_NH4+               D
        R(D)_OH-                D
#
#  minerals and gases
#
        R(13C)_CH4(g)           [13C]
        R(13C)_CO2(g)           [13C]
        R(13C)_Calcite          [13C]
        R(15N)_NH3(g)           [15N]
        R(18O)_CO2(g)           [18O]
        R(18O)_Calcite          [18O]
        R(18O)_H2O(g)           [18O]
        R(18O)_O2(g)            [18O]
        R(34S)_Anhydrite        [34S]
        R(34S)_Gypsum           [34S]
        R(34S)_H2S(g)           [34S]
        R(D)_CH4(g)             D
        R(D)_H2(g)              D
        R(D)_H2O(g)             D
        R(D)_H2S(g)             D
        R(D)_NH3(g)             D
#        R(D)_Gypsum             D

ISOTOPE_ALPHAS
        Alpha_13C_CH4(aq)/CH4(g)                Log_alpha_13C_CH4(aq)/CH4(g)
        Alpha_13C_CH4(aq)/CO2(aq)               Log_alpha_13C_CH4(aq)/CO2(aq)
        Alpha_13C_CO2(g)/CO2(aq)                Log_alpha_13C_CO2(g)/CO2(aq)
        Alpha_13C_CO2(aq)/Calcite               Log_alpha_13C_CO2(aq)/Calcite
        Alpha_13C_CO3-2/CO2(aq)                 Log_alpha_13C_CO3-2/CO2(aq)
        Alpha_13C_HCO3-/CO2(aq)                 Log_alpha_13C_HCO3-/CO2(aq)
        Alpha_15N_N2/NO3-                       Log_alpha_15N_N2/NO3-
        Alpha_15N_NH4+/NO3-                     Log_alpha_15N_NH4+/NO3-
        Alpha_18O_CO2(g)/CO2(aq)                Log_alpha_18O_CO2(g)/CO2(aq)
        Alpha_18O_CO2(aq)/H2O(l)                Log_alpha_18O_CO2(aq)/H2O(l)
        Alpha_18O_CO3-2/Calcite                 Log_alpha_18O_CO2(aq)/Calcite
        Alpha_18O_CO3-2/H2O(l)                  Log_alpha_18O_CO3-2/H2O(l)
        Alpha_18O_H2O(l)/H2O(g)                 Log_alpha_18O_H2O(l)/H2O(g)
        Alpha_18O_H3O+/H2O(l)                   Log_alpha_18O_H3O+/H2O(l)
        Alpha_18O_HCO3-/CO2(aq)                 Log_alpha_18O_HCO3-/CO2(aq)
        Alpha_18O_O2(aq)/H2O(l)                 Log_alpha_18O_O2(aq)/H2O(l)
        Alpha_18O_O2(aq)/O2(g)                  Log_alpha_18O_O2(aq)/O2(g)
        Alpha_18O_OH-/H2O(l)                    Log_alpha_18O_OH-/H2O(l)
        Alpha_34S_H2S(aq)/H2S(g)                Log_alpha_34S_H2S(aq)/H2S(g)
        Alpha_34S_H2S(aq)/HS-                   Log_alpha_34S_H2S(aq)/HS-
        Alpha_34S_HS-/SO4-2                     Log_alpha_34S_HS-/SO4-2
        Alpha_34S_HSO4-/SO4-2                   Log_alpha_34S_HSO4-/SO4-2
        Alpha_34S_S-2/HS-                       Log_alpha_34S_S-2/HS-
        Alpha_D_CH4(aq)/CH4(g)                  Log_alpha_D_CH4(aq)/CH4(g)
        Alpha_D_CH4(aq)/H2O(l)                  Log_alpha_D_CH4(aq)/H2O(l)
        Alpha_D_H2(aq)/H2(g)                    Log_alpha_D_H2(aq)/H2(g)
        Alpha_D_H2(aq)/H2O(l)                   Log_alpha_D_H2(aq)/H2O(l)
        Alpha_D_H2O(l)/H2O(g)                   Log_alpha_D_H2O(l)/H2O(g)
        Alpha_D_H2S(aq)/H2S(g)                  Log_alpha_D_H2S(aq)/H2S(g)
        Alpha_D_H2S(aq)/HS-                     Log_alpha_D_H2S(aq)/HS-
        Alpha_D_H3O+/H2O(l)                     Log_alpha_D_H3O+/H2O(l)
        Alpha_D_HCO3-/H2O(l)                    Log_alpha_D_HCO3-/H2O(l)
        Alpha_D_OH-/H2O(l)                      Log_alpha_D_OH-/H2O(l)

NAMED_EXPRESSIONS
#
# H2O fractionation factors
#
        Log_alpha_D_H2O(l)/H2O(g)               # 1000ln(alpha(25C)) = 76.4
                # 0-100 C
                -ln_alpha1000   52.612  0.0     -76.248e3       0.0     24.844e6

        Log_alpha_T_H2O(l)/H2O(g)               # 1000ln(alpha(25C)) = 152.7
                # 0-100 C
                -ln_alpha1000   105.224 0.0     -152.496e3      0.0     49.688e6

        Log_alpha_18O_H2O(l)/H2O(g)             # 1000ln(alpha(25C)) = 9.3
                # 0-100 C
                -ln_alpha1000   -2.0667 0.0     -0.4156e3       0.0     1.137e6

        Log_alpha_18O_O2(aq)/H2O(l)             
                -ln_alpha1000   0

#
# OH- fractionation factors
#
        Log_alpha_D_OH-/H2O(l)                  # 1000ln(alpha(25C)) = -1435
                # 13.5 C
                -ln_alpha1000   -1435.0     

        Log_alpha_T_OH-/H2O(l)                  # 1000ln(alpha(25C)) = -2870
                # 13.5 C
                -ln_alpha1000   -2870.0

        Log_alpha_18O_OH-/H2O(l)                # 1000ln(alpha(25C)) = -37.8
                # 25 C
                -ln_alpha1000   -37.777
#
# H3O- fractionation factors
#
        Log_alpha_D_H3O+/H2O(l)                 # 1000ln(alpha(25C)) = 40.8
                # 13.5 C
                -ln_alpha1000   40.82

        Log_alpha_T_H3O+/H2O(l)                 # 1000ln(alpha(25C)) = 81.6
                # 13.5 C
                -ln_alpha1000   81.64

        Log_alpha_18O_H3O+/H2O(l)               # 1000ln(alpha(25C)) = 22.9
                # 25 C
                -ln_alpha1000   22.86   
#
# CO2 fractionation factors
#
        Log_alpha_18O_CO2(aq)/H2O(l)            # 1000ln(alpha(25C)) = 41.2
                # 0-100 C
                -ln_alpha1000   -21.9285        0.0     19.43596e3      0.0     -0.181115e6

# should not use now
#        Log_alpha_18O_CO2(g)/CO2(aq)            # 1000ln(alpha(25C)) = -1.07
#                # 0-60 C
#                -ln_alpha1000   1.9585 0.0     -1.44176e3       0.0     0.160515e6
#                # Fit from Vogel and others, 1970 data in Friedman and O'Neill

        Log_alpha_18O_CO2(g)/H2O(l)             # 1000ln(alpha(25C)) = -1.07
                # 0-100 C
                -ln_alpha1000   -19.97  0.0     17.9942e3        0.0     -0.0206e6
                # Battinga, written commun. 1973, cited in Friedman and O'Neill

        Log_alpha_13C_CO2(g)/CO2(aq)            # 1000ln(alpha(25C)) = 0.8
                # 0-100 C
                -ln_alpha1000   0.91   0.0     0.0     0.0     -0.0063e6

        Log_alpha_14C_CO2(g)/CO2(aq)            # 1000ln(alpha(25C)) = 1.7
                # 0-100 C
                -ln_alpha1000   1.82   0.0     0.0     0.0     -0.0126e6
#
# HCO3 fractionation factors
#
        Log_alpha_D_HCO3-/H2O(l)
                -ln_alpha1000   0.0

        Log_alpha_T_HCO3-/H2O(l)                    
                -ln_alpha1000   0.0

        Log_alpha_18O_HCO3-/CO2(aq)
                -ln_alpha1000   0.0

        Log_alpha_13C_HCO3-/CO2(aq)             # 1000ln(alpha(25C)) = 8.7
                # 0-100 C
                -ln_alpha1000   -3.63   0.0     0.0     0.0     1.0927e6

        Log_alpha_14C_HCO3-/CO2(aq)             # 1000ln(alpha(25C)) = 17.3
                # 0-100 C
                -ln_alpha1000   -7.26   0.0     0.0     0.0     2.1854e6
#
# CO3 fractionation factors
#
        Log_alpha_18O_CO3-2/H2O(l)
                -ln_alpha1000   0.0

        Log_alpha_13C_CO3-2/CO2(aq)             # 1000ln(alpha(25C)) = 7.2
                # 0-100 C
                -ln_alpha1000   -2.49   0.0     0.0     0.0     0.8637e6

        Log_alpha_14C_CO3-2/CO2(aq)             # 1000ln(alpha(25C)) = 14.5
                # 0-100 C
                -ln_alpha1000   -4.98   0.0     0.0     0.0     1.7274e6
#
# CO2-Calcite fractionation factors
#
        Log_alpha_18O_CO2(aq)/Calcite           # 1000ln(alpha(25C)) = 13.6
                # 0-100 C
                -ln_alpha1000   -4.7383 0.0     12.05276e3      0.0     -1.963915e6

        Log_alpha_13C_CO2(aq)/Calcite           # 1000ln(alpha(25C)) = -10.6
                # 0-100 C
                -ln_alpha1000   2.72    0.0     0.0     0.0     -1.1877e6

        Log_alpha_14C_CO2(aq)/Calcite           # 1000ln(alpha(25C)) = -21.3
                # 0-100 C
                -ln_alpha1000   5.44    0.0     0.0     0.0     -2.3754e6

#
# May 30, 2006
#
        Log_alpha_13C_CH4(aq)/CO2(aq)
                -ln_alpha1000   0
        Log_alpha_14C_CH4(aq)/CO2(aq)
                -ln_alpha1000   0

        Log_alpha_13C_CH4(g)/CH4(aq)
                -ln_alpha1000   0
        Log_alpha_14C_CH4(g)/CH4(aq)
                -ln_alpha1000   0
        Log_alpha_D_CH4(g)/CH4(aq)
                -ln_alpha1000   0
        Log_alpha_T_CH4(g)/CH4(aq)
                -ln_alpha1000   0

        Log_alpha_D_CH4(aq)/H2O(l)
                -ln_alpha1000   0
        Log_alpha_T_CH4(aq)/H2O(l)
                -ln_alpha1000   0

        Log_alpha_D_HCO3-/H2O(l)
                -ln_alpha1000   0
        Log_alpha_T_HCO3-/H2O(l)
                -ln_alpha1000   0

        Log_alpha_D_HS-/H2O(l)
                -ln_alpha1000   0
        Log_alpha_T_HS-/H2O(l)
                -ln_alpha1000   0

        Log_alpha_D_HSO4-/H2O(l)
                -ln_alpha1000   0
        Log_alpha_T_HSO4-/H2O(l)
                -ln_alpha1000   0

        Log_alpha_D_H2(aq)/H2O(l)
                -ln_alpha1000   0
        Log_alpha_T_H2(aq)/H2O(l)
                -ln_alpha1000   0

        Log_alpha_D_H2S(aq)/H2O(l)
                -ln_alpha1000   0
        Log_alpha_T_H2S(aq)/H2O(l)
                -ln_alpha1000   0

        Log_alpha_18O_HCO3-/H2O(l)
                -ln_alpha1000   0

        Log_alpha_D_NH3/H2O(l)
                -ln_alpha1000   0
        Log_alpha_T_NH3/H2O(l)
                -ln_alpha1000   0

        Log_alpha_D_NH4+/H2O(l)
                -ln_alpha1000   0
        Log_alpha_T_NH4+/H2O(l)
                -ln_alpha1000   0

        Log_alpha_15N_NH3/NO3-
                -ln_alpha1000   0

        Log_alpha_15N_NH4+/NH3
                -ln_alpha1000   0

        Log_alpha_15N_N2(g)/N2(aq)
                -ln_alpha1000   0

        Log_alpha_15N_NH3(g)/NH3(aq)
                -ln_alpha1000   0
        Log_alpha_D_NH3(g)/NH3(aq)
                -ln_alpha1000   0
        Log_alpha_T_NH3(g)/NH3(aq)
                -ln_alpha1000   0

        Log_alpha_13C_Calcite/CO3-2
                -ln_alpha1000   0
        Log_alpha_14C_Calcite/CO3-2
                -ln_alpha1000   0

        Log_alpha_18O_Calcite/H2O(l)
                -ln_alpha1000   0

        Log_alpha_34S_Anhydrite/SO4-2
                -ln_alpha1000   0
        Log_alpha_34S_Gypsum/SO4-2
                -ln_alpha1000   0
        Log_alpha_34S_H2S(g)/H2S(aq)
                -ln_alpha1000   0
        Log_alpha_D_H2S(g)/H2S(aq)
                -ln_alpha1000   0
        Log_alpha_T_H2S(g)/H2S(aq)
                -ln_alpha1000   0
        Log_alpha_T_H2(aq)/H2(g)
                -ln_alpha1000   0



NAMED_EXPRESSIONS
#
# Selected equilibrium_constants
#
        Log_KH_H2O(g) H2O(g) = H2O(l)
                log_k           1.51
                delta_h         -44.03   kJ

        Log_K_water   2H2O = OH- + H3O+ 
                log_k           -14.000
                delta_h         13.362  kcal
                -analytic       -283.971       -0.05069842  13323.0    102.24447      -1119669.0

        Log_KH_CO2(g)  CO2(g) = CO2(aq)
                log_k           -1.468
                delta_h         -4.776 kcal
                -analytic       108.3865      0.01985076   -6919.53      -40.45154      669365.0

        Log_K_calcite         CaCO3 = CO3-2 + Ca+2
                log_k           -8.480
                delta_h -2.297 kcal
                -analytic       -171.9065     -0.077993      2839.319      71.595


SOLUTION_SPECIES
H3O+ = H3O+
        log_k           0.000
        -gamma          9.0000    0.0000

e- = e-
        log_k           0.000

Ca+2 = Ca+2
        log_k           0.000
        -gamma          5.0000    0.1650

Mg+2 = Mg+2
        log_k           0.000
        -gamma    5.5000    0.2000

Na+ = Na+
        log_k           0.000
        -gamma          4.0000    0.0750

K+ = K+
        log_k           0.000
        -gamma    3.5000    0.0150

Cl- = Cl-
        log_k           0.000
        -gamma          3.5000    0.0150

SO4-2 = SO4-2
        log_k           0.000
        -gamma    5.0000   -0.0400

NO3- = NO3-
        log_k           0.000
        -gamma    3.0000    0.0000

H2O = H2O
        log_k           0.000

6 H2O = O2 + 4 H3O+ + 4 e-
        log_k           -86.08
        delta_h         134.79 kcal

2 H3O+ + 2 e- = H2 + 2H2O
        log_k           -3.15
        delta_h         -1.759 kcal

SOLUTION_SPECIES
Ca+2 + SO4-2 = CaSO4
        log_k           2.300
        delta_h 1.650   kcal

Ca+2 + HSO4- = CaHSO4+
        log_k           1.08

Mg+2 + SO4-2 = MgSO4
        log_k           2.370
        delta_h 4.550   kcal

Na+ + SO4-2 = NaSO4-
        log_k           0.700
        delta_h 1.120   kcal

K+ + SO4-2 = KSO4-
        log_k           0.850
        delta_h 2.250   kcal
        -analytical      3.106  0.0   -673.6


SOLUTION_SPECIES
#
# H2O reactions 
# last update July 31, 2006
# checked September 19, 2006
#
        H2O = H2O
        log_k           0

        H2[18O] = H2[18O]
        -activity_water
        log_k           0

        D2O = D2O
        -activity_water
        log_k           0

        HTO = HTO
        -activity_water
        log_k           0

        0.5H2O + 0.5D2O = HDO
        log_k           0.301029995663                          # log10(2)
        -activity_water

        HDO + HTO = DTO + H2O
        -mole_balance  DTO
        log_k           -0.301029995663                         # log10(1/2)
        -activity_water

        2HTO = T2O + H2O
        -mole_balance  T2O
        log_k           -0.6020599913279623960                  # log10(1/4)
        -activity_water

        H2[18O] + HDO = HD[18O] + H2O
        -mole_balance  HD[18O]
        log_k           0.0
        -activity_water

        H2[18O] + HTO = HT[18O] + H2O
        -mole_balance  HT[18O]
        log_k           0.0
        -activity_water

        DTO  + H2[18O] = DT[18O] + H2O
        -mole_balance  DT[18O]
        log_k           0.0
        -activity_water

        D2O + H2[18O] = D2[18O] + H2O
        -mole_balance  D2[18O] 
        log_k           0.0
        -activity_water

        H2[18O] + T2O = T2[18O] + H2O
        -mole_balance  T2[18O]
        log_k           0.0
        -activity_water

#
# OH- reactions 
# last update July 31, 2006
# checked September 19, 2006
#

        2H2O = OH- + H3O+
        -add_logk       Log_K_water                             1.0
        -gamma          3.5000    0.0000

        OH- + HDO = OD- + H2O
        -mole_balance  OD
        log_k           -0.301029995663                         # -log10(2)
        -add_logk       Log_alpha_D_OH-/H2O(l)                  1.0
        -gamma          3.5000    0.0000

        OH- + HTO = OT- + H2O
        -mole_balance  OT
        log_k           -0.301029995663                         # -log10(2)
        -add_logk       Log_alpha_T_OH-/H2O(l)                  1.0
        -gamma          3.5000    0.0000

        OH- + H2[18O] = [18O]H- + H2O
        -mole_balance  [18O]H
        -add_logk       Log_alpha_18O_OH-/H2O(l)                1.0
        -gamma          3.5000    0.0000

        [18O]H- + OD- = [18O]D- + OH-
        -mole_balance  [18O]D
        log_k           0.0
        -gamma          3.5000    0.0000

        [18O]H- + OT- = [18O]T- + OH-
        -mole_balance  [18O]T
        log_k           0.0
        -gamma          3.5000    0.0000

#
# H3O+ reactions
# last update July 31, 2006
# checked September 19, 2006
#

        H3O+ + HDO = H2DO+ + H2O
        -mole_balance  H2DO
        log_k           0.176091259055                          # log10(1.5)
        -add_logk       Log_alpha_D_H3O+/H2O(l)                 1.0
        -gamma          9.0000    0.0000

        2H2DO+ = HD2O+ + H3O+
        -mole_balance  HD2O
        log_k           -0.477121254719662                      # log10(1/3)
        -gamma          9.0000    0.0000

        H2DO+ + HD2O+ = D3O+ + H3O+
        -mole_balance  D3O
        log_k            -0.954242509439324                     # log10(1/9)
        -gamma          9.0000    0.0000

        H3O+ + HTO = H2TO+ + H2O
        -mole_balance  H2TO
        log_k           0.176091259055                          # log10(1.5)
        -add_logk       Log_alpha_T_H3O+/H2O(l)                 1.0
        -gamma          9.0000    0.0000

        2H2TO+ = HT2O+ + H3O+
        -mole_balance  HT2O
        log_k           -0.477121254719662                      # log10(1/3)
        -gamma          9.0000    0.0000

        H2TO+ + HT2O+ = T3O+ + H3O+
        -mole_balance  T3O
        log_k            -0.954242509439324                     # log10(1/9)
        -gamma          9.0000    0.0000

        H2TO+ + H2DO+ = HDTO+ + H3O+
        -mole_balance  HDTO
        log_k           -0.477121254719662                      # log10(1/3)
        -gamma          9.0000    0.0000

        H2TO+ + HD2O+ = D2TO+ + H3O+
        -mole_balance  D2TO
        log_k           -0.477121254719662                      # log10(1/3)
        -gamma          9.0000    0.0000

        H2DO+ + HT2O+ = DT2O+ + H3O+
        -mole_balance  DT2O
        log_k           -0.477121254719662                      # log10(1/3)
        -gamma          9.0000    0.0000

        H3O+ + H2[18O] = H3[18O]+ + H2O
        -mole_balance  H3[18O]
        -add_logk       Log_alpha_18O_H3O+/H2O(l)               1.0
        -gamma          9.0000    0.0000

        H3[18O]+ + H2DO+ = H2D[18O]+ + H3O+
        -mole_balance  H2D[18O]
        -log_k          0.0
        -gamma          9.0000    0.0000

        H3[18O]+ + HD2O+ = HD2[18O]+ + H3O+
        -mole_balance  HD2[18O]
        -log_k          0.0
        -gamma          9.0000    0.0000

        H3[18O]+ + D3O+ = D3[18O]+ + H3O+
        -mole_balance  D3[18O]
        -log_k          0.0
        -gamma          9.0000    0.0000

        H3[18O]+ + H2TO+ = H2T[18O]+ + H3O+
        -mole_balance  H2T[18O]
        -log_k          0.0
        -gamma          9.0000    0.0000

        H3[18O]+ + HT2O+ = HT2[18O]+ + H3O+
        -mole_balance  HT2[18O]
        -log_k          0.0
        -gamma          9.0000    0.0000

        H3[18O]+ + T3O+ = T3[18O]+ + H3O+
        -mole_balance  T3[18O]
        -log_k          0.0
        -gamma          9.0000    0.0000

        H3[18O]+ + HDTO+ = HDT[18O]+ + H3O+
        -mole_balance  HDT[18O]
        -log_k          0.0
        -gamma          9.0000    0.0000

        H3[18O]+ + D2TO+ = D2T[18O]+ + H3O+
        -mole_balance  D2T[18O]
        -log_k          0.0
        -gamma          9.0000    0.0000

        H3[18O]+ + DT2O+ = DT2[18O]+ + H3O+
        -mole_balance  DT2[18O]
        -log_k          0.0
        -gamma          9.0000    0.0000

#
# O2 reactions
# last update July 31, 2006
# checked September 19, 2006
#

        O2 + H2[18O] = O[18O] + H2O
        log_k           0.301029995663                          # log10(2)
        -add_logk       Log_alpha_18O_O2(aq)/H2O(l)              1.0
        -mole_balance   O(0)[18O](0)

        2O[18O] = [18O]2 + O2
        log_k           -0.602059991327962396                   # -log10(4)
        -mole_balance [18O](0)2

#
# H2 reactions
# last update July 31, 2006
# checked September 19, 2006
#

        H2 + HDO = HD + H2O
        -mole_balance  H(0)D(0)
        -add_logk       Log_alpha_D_H2(aq)/H2O(l)                 1.0

        2HD = D2 + H2
        -mole_balance  D(0)2
        log_k           -0.602059991327962396                   # -log10(4)

        H2 + HTO = HT + H2O
        -mole_balance  H(0)T(0)
        -add_logk       Log_alpha_T_H2(aq)/H2O(l)                 1.0

        2HT = T2 + H2
        -mole_balance  T(0)2
        log_k           -0.602059991327962396                   # -log10(4)

        HT + HD = DT + H2
        -mole_balance  D(0)T(0)
        log_k           -0.301029995663                         # -log10(2)

#
# CO2 reactions
# last update July 31, 2006
# Checked September 19, 2006
#
        CO2 = CO2
        log_k           0

        [13C]O2 = [13C]O2
        log_k           0

        [14C]O2 = [14C]O2
        log_k           0

        CO2 + H2[18O] = CO[18O] + H2O
        log_k           0.301029995663                          # log10(2)
        -add_logk       Log_alpha_18O_CO2(aq)/H2O(l)            1.0

        2CO[18O] = C[18O]2 + CO2
        log_k           -0.6020599913279623960                  # log10(1/4)

        [13C]O2 + CO[18O] = [13C]O[18O] + CO2
        log_k           0

        [13C]O2 + C[18O]2 = [13C][18O]2 + CO2
        log_k           0

        [14C]O2 + CO[18O] = [14C]O[18O] + CO2
        log_k           0

        [14C]O2 + C[18O]2 = [14C][18O]2 + CO2
        log_k           0

#
# CO3-2 reactions
# last update July 31, 2006
# Checked September 19, 2006
#

        CO2 + 3H2O = CO3-2 + 2H3O+
                log_k           -16.681
                delta_h         5.738  kcal
                -analytic       -464.1965       -0.09344813  26986.16    165.75951      -2248628.9

        CO3-2 + H2[18O] = CO2[18O]-2 + H2O
        log_k           0.477121254719                          # log10(3)
        -add_logk       Log_alpha_18O_CO3-2/H2O(l)              1.0

        2CO2[18O]-2 = CO[18O]2-2 + CO3-2
        log_k           -0.477121254719                         # -log10(3)

        CO2[18O]-2 + CO[18O]2-2 = C[18O]3-2 + CO3-2
        log_k            -0.954242509439324                     # log10(1/9)

        CO3-2 + [13C]O2 = [13C]O3-2 + CO2
        -add_logk       Log_alpha_13C_CO3-2/CO2(aq)             1.0

        [13C]O3-2 + CO2[18O]-2 = [13C]O2[18O]-2 + CO3-2
        log_k           0.0

        [13C]O3-2 + CO[18O]2-2 = [13C]O[18O]2-2 + CO3-2
        log_k           0.0

        [13C]O3-2 + C[18O]3-2 = [13C][18O]3-2 + CO3-2
        log_k           0.0

        CO3-2 + [14C]O2 = [14C]O3-2 + CO2
        -add_logk       Log_alpha_14C_CO3-2/CO2(aq)             1.0

        [14C]O3-2 + CO2[18O]-2 = [14C]O2[18O]-2 + CO3-2
        log_k           0.0

        [14C]O3-2 + CO[18O]2-2 = [14C]O[18O]2-2 + CO3-2
        log_k           0.0

        [14C]O3-2 + C[18O]3-2 = [14C][18O]3-2 + CO3-2
        log_k           0.0


#
# CH4 reactions
#


CALCULATE_VALUES
        R(13C)_CO3-2
        -start
10 ratio = -9999.999
20 if (TOT("[13C]") <= 0) THEN GOTO 100
30 total_13C = sum_species("*[13C]{O,[18O]}3*","[13C]") - sum_species("*{H,D,T}[13C]{O,[18O]}3*","[13C]")
40 total_12C = sum_species("*C{O,[18O]}3*","C") - sum_species("*{H,D,T}C{O,[18O]}3*","C")
50 if (total_12C <= 0) THEN GOTO 100
60 ratio = total_13C/total_12C
100 save ratio
        -end

        R(D)_H2O(l)
        -start
10 ratio = -9999.999