DATABASE ../database/phreeqd.dat
KNOBS; -iter 400
SURFACE_MASTER_SPECIES; Su Su-
SURFACE_SPECIES; Su- = Su-; log_k 0
SOLUTION 0
# Ca 0.1; Cl 0.1 charge
 water 1
SOLUTION 1-10
 pH 7.0
 Na 1; Cl 1 charge
 water 0.3
END
USE solution 1
SURFACE 1-10
 Su 1e-3 1e4 1
 -equil 1
 -donnan d 1 l 0.9 v 1# 1e-9
knobs 
-debug_model

END
