DATABASE c:\cygwin\home\charlton\programs\phreeqc\phreeqci-trunk\Debug\phreeqc.dat
SOLUTION 1
    temp      25
    pH        7
    pe        4
    redox     pe
    units     mmol/kgw
    density   1
    -water    1 # kg

SELECTED_OUTPUT
    -file                 selected.out

USER_PUNCH
-headings 
-start
10 PUNCH  ALK
20 PUNCH  CALC_VALUE("value")
30 PUNCH  CELL_NO
40 CHANGE_POR(.55, 1)
50 CHANGE_SURF("Hfo", 0.5, "Sfo", 1e-8, 1)
60 PUNCH  CHARGE_BALANCE
70 PUNCH  DESCRIPTION
80 PUNCH  DIST
90 PUNCH  EDL("element", "surface")
100 PUNCH  EQUI("phase")
110 PUNCH  EXISTS(i1)
120 PUNCH  GAMMA("species")
130 PUNCH  GAS("gas")
140 PUNCH  GET(i1)
150 PUNCH  GET_POR(CELL_NO)
160 PUNCH  KIN("reactant")
170 PUNCH  LA("species")
180 PUNCH  LG("species")
190 PUNCH  LK_NAMED("name")
200 PUNCH  LK_PHASE("phase")
210 PUNCH  LK_SPECIES("species")
220 PUNCH  LM("species")
230 PUNCH  LTRIM(a$)
240 PUNCH  M
250 PUNCH  M0
260 PUNCH  MISC1("component")
270 PUNCH  MISC2("component")
280 PUNCH  MOL("species")
290 PUNCH  MU
300 PUNCH  OSMOTIC
310 PUNCH  PAD(a$, n)
320 PRINT "Print"
330 PUT(x, i1)
340 PUNCH  RHO
350 PUNCH  RTRIM(a$)
360 PUNCH  RXN
370 PUNCH  S_S("component")
380 PUNCH  SC
390 PUNCH  SI("phase")
400 PUNCH  SIM_NO
410 PUNCH  SIM_TIME
420 PUNCH  SR("phase")
430 PUNCH  STEP_NO
440 PUNCH  SUM_GAS("template", "element")
450 PUNCH  SUM_s_s("s_s_name", "element")
460 PUNCH  SUM_SPECIES("template", "element")
470 PUNCH  SURF("element", "surface")
480 PUNCH  SYS("aq", count, names$, types$, values)
490 PUNCH  SYS("element", count_species, names$, types$, moles)
500 PUNCH  SYS("elements", count, names$, types$, values)
510 PUNCH  SYS("ex", count, names$, types$, values)
520 PUNCH  SYS("gas", count, names$, types$, values)
530 PUNCH  SYS("phases", count, names$, types$, values)
540 PUNCH  SYS("s_s", count, names$, types$, values)
550 PUNCH  SYS("surf", count, names$, types$, values)
560 PUNCH  TC
570 PUNCH  TIME
580 PUNCH  TK
590 PUNCH  TOT("element")
600 PUNCH  TOTAL_TIME
610 PUNCH  TRIM("   abc  ")
620 PUNCH  8 MOD 3
630 PUNCH  SQR(1)
640 PUNCH  SQRT(1)
650 PUNCH  SIN(1)
660 PUNCH  COS(1)
670 PUNCH  TAN(1)
680 PUNCH  ARCTAN(1)
690 PUNCH  LOG(10)
700 PUNCH  EXP(2)
710 PUNCH  ABS(-2)
720 PUNCH  SGN(-2)
730 PUNCH  STR$(1.33)
740 PUNCH  VAL("2.34")
750 PUNCH  CHR$(24)
760 PUNCH  ASC("A")
770 PUNCH  LEN("string")
780 PUNCH  MID$("abc", 1, 2)
#790 PUNCH  PEEK(233)
-end
