DATABASE c:\cygwin\home\charlton\programs\phreeqc\phreeqci-trunk\Debug\phreeqc.dat
SOLUTION 1
    temp      25
    pH        7
    pe        4
    redox     pe
    units     mmol/kgw
    density   1
    -water    1 # kg

USER_PRINT
-start
10 PRINT  ALK
20 PRINT  CALC_VALUE("value")
30 PRINT  CELL_NO
40 CHANGE_POR(.55, 1)
50 CHANGE_SURF("Hfo", 0.5, "Sfo", 1e-8, 1)
60 PRINT  CHARGE_BALANCE
70 PRINT  DESCRIPTION
80 PRINT  DIST
90 PRINT  EDL("element", "surface")
100 PRINT  EQUI("phase")
110 PRINT  EXISTS(i1)
120 PRINT  GAMMA("species")
130 PRINT  GAS("gas")
140 PRINT  GET(i1)
150 PRINT  GET_POR(CELL_NO)
160 PRINT  KIN("reactant")
170 PRINT  LA("species")
180 PRINT  LG("species")
190 PRINT  LK_NAMED("name")
200 PRINT  LK_PHASE("phase")
210 PRINT  LK_SPECIES("species")
220 PRINT  LM("species")
230 PRINT  LTRIM(a$)
240 PRINT  M
250 PRINT  M0
260 PRINT  MISC1("component")
270 PRINT  MISC2("component")
280 PRINT  MOL("species")
290 PRINT  MU
300 PRINT  OSMOTIC
310 PRINT  PAD(a$, n)
320 PRINT "Print"
330 PUT(x, i1)
340 PRINT  RHO
350 PRINT  RTRIM(a$)
360 PRINT  RXN
370 PRINT  S_S("component")
380 PRINT  SC
390 PRINT  SI("phase")
400 PRINT  SIM_NO
410 PRINT  SIM_TIME
420 PRINT  SR("phase")
430 PRINT  STEP_NO
440 PRINT  SUM_GAS("template", "element")
450 PRINT  SUM_s_s("s_s_name", "element")
460 PRINT  SUM_SPECIES("template", "element")
470 PRINT  SURF("element", "surface")
480 PRINT  SYS("aq", count, names$, types$, values)
490 PRINT  SYS("element", count_species, names$, types$, moles)
500 PRINT  SYS("elements", count, names$, types$, values)
510 PRINT  SYS("ex", count, names$, types$, values)
520 PRINT  SYS("gas", count, names$, types$, values)
530 PRINT  SYS("phases", count, names$, types$, values)
540 PRINT  SYS("s_s", count, names$, types$, values)
550 PRINT  SYS("surf", count, names$, types$, values)
560 PRINT  TC
570 PRINT  TIME
580 PRINT  TK
590 PRINT  TOT("element")
600 PRINT  TOTAL_TIME
610 PRINT  TRIM("   abc  ")
620 PRINT  8 MOD 3
630 PRINT  SQR(1)
640 PRINT  SQRT(1)
650 PRINT  SIN(1)
660 PRINT  COS(1)
670 PRINT  TAN(1)
680 PRINT  ARCTAN(1)
690 PRINT  LOG(10)
700 PRINT  EXP(2)
710 PRINT  ABS(-2)
720 PRINT  SGN(-2)
730 PRINT  STR$(1.33)
740 PRINT  VAL("2.34")
750 PRINT "Q="+CHR$(81)
760 PRINT  ASC("A")
770 PRINT  LEN("string"), LEN("")
780 PRINT  MID$("abc", 1, 2)
790 LET b = a
800 GOTO 810
810 GOTO 820
820 PRINT  TC
830 IF(b < a) THEN a = b ELSE b = a
840 a$ = "cats "
850 b$ = "and dogs"
860 c$ = a$+b$
870 PRINT  c$
880 i = 0
890 WHILE(i < 5)
900 PRINT  i
910 i = i+1
920 WEND
930 FOR i = 10 TO 100 STEP 10
940 PRINT  i
950 NEXT i
960 GOSUB 990
970 PRINT "Returned from gosub"
980 END
990 REM Start of gosub
1000 PRINT "in sub"
1010 DATA 1, 2, 3, "abc"
1020 READ i
1030 READ j
1040 READ k
1050 READ s$
1060 PRINT  i, j, k, s$
1070 DATA 10, 20, 30, "abc"
1080 READ i
1090 READ j
1100 READ k
1110 READ s$
1120 PRINT  i, j, k, s$
1130 RESTORE 1010
1140 READ i
1150 READ j
1160 READ k
1170 READ s$
1180 PRINT  i, j, k, s$
1190 REM GOTOXY not tested
1200 ON((i MOD 3)+1)GOTO 1210, 1220, 1230
1210 PRINT  1210
1220 PRINT  1220
1230 PRINT  1230
1240 DIM arr(10)
1250 FOR i = 1 TO 10
1260 arr(i) = i*2
1270 NEXT i
1280 FOR i = 1 TO 10
1290 PRINT  arr(i)
1300 NEXT i
1310 REM POKE not tested
1320 REM NEW not tested
1330 REM LOAD not tested
1340 RETURN
1350 PRINT "***should never see this***"
-end
