# Dumpfile
# Transport simulation 2.  Shift 100.
#
END
SOLUTION 0
	units  mol/kgw
	temp   25.0
	pH      7.19000
	pe     13.41582
	water   1.00000
	Al      1.80056e-006
	C(4)    2.58778e-003
	Ca      1.22570e-003
	Cd      4.50140e-009
	Cl      4.80150e-004
	Co      5.00156e-007
	Cu(1)   2.19267e-019
	Cu(2)   1.50047e-007
	F       1.58049e-005
	Fe(2)   1.53209e-016
	Fe(3)   3.50109e-007
	K       3.00093e-005
	Mg      3.70115e-004
	Mn(2)   9.99951e-008
	Mn(3)   9.43605e-020
	Mn(6)   4.29652e-015
	Mn(7)   3.61062e-011
	Na      9.60299e-004
	Ni      1.00031e-006
	O(0)    4.40137e-004
	S(6)    7.00218e-004
	Si      4.00125e-004
	Sr      2.70084e-006
	Zn      2.50078e-007
END
END
SOLUTION 1
	units  mol/kgw
	temp   25.0
	pH      7.13803
	pe     13.46776
	water   1.00000
	Al      1.80056e-006
	C(4)    2.58778e-003
	Ca      1.22455e-003
	Cd      4.50140e-009
	Cl      4.80149e-004
	Co      2.01952e-007
	Cu(1)   1.87180e-020
	Cu(2)   1.25130e-008
	F       1.58049e-005
	Fe(2)   1.84949e-017
	Fe(3)   3.48409e-008
	K       3.00093e-005
	Mg      3.70115e-004
	Mn(2)   1.38535e-014
	Mn(6)   3.72135e-022
	Mn(7)   3.52445e-018
	Na      9.60299e-004
	Ni      5.61800e-007
	O(0)    4.40037e-004
	S(6)    7.14435e-004
	Si      4.00124e-004
	Sr      2.70084e-006
	Zn      1.08743e-008
EQUILIBRIUM_PHASES 1
	Calcite          0.000000e+000  0.000000e+000
	Fe(OH)3(a)       0.000000e+000  1.027414e+000
	Gypsum           0.000000e+000  0.000000e+000
	Pyrolusite       0.000000e+000  2.085368e-005
	SiO2(a)          0.000000e+000  0.000000e+000
SURFACE 1
	Surf_s       	 9.72000e-004  6.00000e+002  1.73000e+001
	Surf_w       	 3.88900e-002  6.00000e+002  1.73000e+001
	-equil  1
END
END
SOLUTION 2
	units  mol/kgw
	temp   25.0
	pH      7.05309
	pe     13.55270
	water   1.00000
	Al      1.80056e-006
	C(4)    2.58778e-003
	Ca      1.22217e-003
	Cd      4.50140e-009
	Cl      4.80149e-004
	Co      6.63639e-008
	Cu(1)   2.44433e-021
	Cu(2)   1.59084e-009
	F       1.58049e-005
	Fe(2)   2.71932e-017
	Fe(3)   3.76315e-008
	K       3.00093e-005
	Mg      3.70115e-004
	Mn(2)   2.02200e-014
	Mn(6)   2.51707e-022
	Mn(7)   2.89848e-018
	Na      9.60298e-004
	Ni      1.97133e-007
	O(0)    4.40036e-004
	S(6)    7.41668e-004
	Si      4.00124e-004
	Sr      2.70084e-006
	Zn      4.73576e-010
EQUILIBRIUM_PHASES 2
	Calcite          0.000000e+000  0.000000e+000
	Fe(OH)3(a)       0.000000e+000  1.063559e+000
	Gypsum           0.000000e+000  0.000000e+000
	Pyrolusite       0.000000e+000  4.410229e-006
	SiO2(a)          0.000000e+000  0.000000e+000
SURFACE 2
	Surf_s       	 9.72000e-004  6.00000e+002  1.73000e+001
	Surf_w       	 3.88900e-002  6.00000e+002  1.73000e+001
	-equil  2
END
END
SOLUTION 3
	units  mol/kgw
	temp   25.0
	pH      6.92778
	pe     13.67801
	water   1.00000
	Al      1.80056e-006
	C(4)    2.58777e-003
	Ca      1.21850e-003
	Cd      4.50139e-009
	Cl      4.80148e-004
	Co      2.37015e-008
	Cu(1)   1.10644e-021
	Cu(2)   7.10520e-010
	F       1.58049e-005
	Fe(2)   4.80658e-017
	Fe(3)   4.29248e-008
	K       3.00093e-005
	Mg      3.70114e-004
	Mn(2)   3.54420e-014
	Mn(6)   1.41397e-022
	Mn(7)   2.17222e-018
	Na      9.60296e-004
	Ni      5.12312e-008
	O(0)    4.40036e-004
	S(6)    7.90123e-004
	Si      4.00123e-004
	Sr      2.70083e-006
	Zn      4.86434e-011
EQUILIBRIUM_PHASES 3
	Calcite          0.000000e+000  0.000000e+000
	Fe(OH)3(a)       0.000000e+000  1.063261e+000
	Gypsum           0.000000e+000  0.000000e+000
	Pyrolusite       0.000000e+000  8.598183e-006
	SiO2(a)          0.000000e+000  0.000000e+000
SURFACE 3
	Surf_s       	 9.72000e-004  6.00000e+002  1.73000e+001
	Surf_w       	 3.88900e-002  6.00000e+002  1.73000e+001
	-equil  3
END
END
SOLUTION 4
	units  mol/kgw
	temp   25.0
	pH      6.77019
	pe     13.83560
	water   1.00001
	Al      1.80055e-006
	C(4)    2.58777e-003
	Ca      1.21379e-003
	Cd      4.50138e-009
	Cl      4.80147e-004
	Co      1.03738e-008
	Cu(1)   7.09878e-022
	Cu(2)   4.68712e-010
	F       1.58048e-005
	Fe(2)   9.84948e-017
	Fe(3)   5.22190e-008
	K       3.00092e-005
	Mg      3.70113e-004
	Mn(2)   7.21062e-014
	Mn(3)   1.89245e-025
	Mn(6)   6.84768e-023
	Mn(7)   1.51141e-018
	Na      9.60294e-004
	Ni      1.18011e-008
	O(0)    4.40035e-004
	S(6)    8.65508e-004
	Si      4.00122e-004
	Sr      2.70083e-006
	Zn      9.51803e-012
EQUILIBRIUM_PHASES 4
	Calcite          0.000000e+000  0.000000e+000
	Fe(OH)3(a)       0.000000e+000  1.062138e+000
	Gypsum           0.000000e+000  0.000000e+000
	Pyrolusite       0.000000e+000  2.506532e-006
	SiO2(a)          0.000000e+000  0.000000e+000
SURFACE 4
	Surf_s       	 9.72000e-004  6.00000e+002  1.73000e+001
	Surf_w       	 3.88900e-002  6.00000e+002  1.73000e+001
	-equil  4
END
END
SOLUTION 5
	units  mol/kgw
	temp   25.0
	pH      6.58271
	pe     14.02309
	water   1.00001
	Al      1.80055e-006
	C(4)    2.58776e-003
	Ca      1.20803e-003
	Cd      4.50136e-009
	Cl      4.80145e-004
	Co      5.55585e-009
	Cu(1)   5.40143e-022
	Cu(2)   3.93238e-010
	F       1.58048e-005
	Fe(2)   2.31463e-016
	Fe(3)   6.87757e-008
	K       3.00091e-005
	Mg      3.70112e-004
	Mn(2)   1.68615e-013
	Mn(3)   6.92641e-025
	Mn(6)   2.89089e-023
	Mn(7)   9.81782e-019
	Na      9.60291e-004
	Ni      2.80221e-009
	O(0)    4.40033e-004
	S(6)    9.75123e-004
	Si      4.00121e-004
	Sr      2.70082e-006
	Zn      2.36344e-012
EQUILIBRIUM_PHASES 5
	Calcite          0.000000e+000  0.000000e+000
	Fe(OH)3(a)       0.000000e+000  1.063127e+000
	Gypsum           0.000000e+000  0.000000e+000
	Pyrolusite       0.000000e+000  4.703616e-006
	SiO2(a)          0.000000e+000  0.000000e+000
SURFACE 5
	Surf_s       	 9.72000e-004  6.00000e+002  1.73000e+001
	Surf_w       	 3.88900e-002  6.00000e+002  1.73000e+001
	-equil  5
END
END
SOLUTION 6
	units  mol/kgw
	temp   25.0
	pH      6.35659
	pe     14.24920
	water   1.00001
	Al      1.80054e-006
	C(4)    2.58775e-003
	Ca      1.20113e-003
	Cd      4.50135e-009
	Cl      4.80144e-004
	Co      3.55635e-009
	Cu(1)   4.67242e-022
	Cu(2)   4.18756e-010
	F       1.58047e-005
	Fe(2)   6.49161e-016
	Fe(3)   1.01138e-007
	K       3.00090e-005
	Mg      3.70111e-004
	Mn(2)   4.71759e-013
	Mn(3)   3.31432e-024
	Mn(6)   1.02210e-023
	Mn(7)   5.83548e-019
	Na      9.60287e-004
	Ni      7.89939e-010
	O(0)    4.40032e-004
	S(6)    1.12803e-003
	Si      4.00120e-004
	Sr      2.70081e-006
	Zn      7.01608e-013
EQUILIBRIUM_PHASES 6
	Calcite          0.000000e+000  0.000000e+000
	Fe(OH)3(a)       0.000000e+000  1.060331e+000
	Gypsum           0.000000e+000  0.000000e+000
	Pyrolusite       0.000000e+000  6.680143e-006
	SiO2(a)          0.000000e+000  0.000000e+000
SURFACE 6
	Surf_s       	 9.72000e-004  6.00000e+002  1.73000e+001
	Surf_w       	 3.88900e-002  6.00000e+002  1.73000e+001
	-equil  6
END
END
SOLUTION 7
	units  mol/kgw
	temp   25.0
	pH      6.06806
	pe     14.53773
	water   1.00002
	Al      1.80053e-006
	C(4)    2.58774e-003
	Ca      1.19376e-003
	Cd      4.50133e-009
	Cl      4.80142e-004
	Co      2.72387e-009
	Cu(1)   4.76594e-022
	Cu(2)   6.32165e-010
	F       1.58047e-005
	Fe(2)   2.42370e-015
	Fe(3)   1.76620e-007
	K       3.00089e-005
	Mg      3.70109e-004
	Mn(2)   1.76142e-012
	Mn(3)   2.44420e-023
	Mn(6)   2.71267e-024
	Mn(7)   3.00464e-019
	Na      9.60284e-004
	Ni      3.09986e-010
	O(0)    4.40030e-004
	S(6)    1.32722e-003
	Si      4.00118e-004
	Sr      2.70080e-006
	Zn      2.78570e-013
EQUILIBRIUM_PHASES 7
	Calcite          0.000000e+000  0.000000e+000
	Fe(OH)3(a)       0.000000e+000  1.062779e+000
	Gypsum           0.000000e+000  0.000000e+000
	Pyrolusite       0.000000e+000  7.663714e-006
	SiO2(a)          0.000000e+000  0.000000e+000
SURFACE 7
	Surf_s       	 9.72000e-004  6.00000e+002  1.73000e+001
	Surf_w       	 3.88900e-002  6.00000e+002  1.73000e+001
	-equil  7
END
END
SOLUTION 8
	units  mol/kgw
	temp   25.0
	pH      5.68217
	pe     14.92363
	water   1.00002
	Al      1.80053e-006
	C(4)    2.58774e-003
	Ca      1.18800e-003
	Cd      4.50132e-009
	Cl      4.80141e-004
	Co      2.50685e-009
	Cu(1)   6.39980e-022
	Cu(2)   1.69042e-009
	F       1.58046e-005
	Fe(2)   1.41715e-014
	Fe(3)   4.00849e-007
	K       3.00088e-005
	Mg      3.70109e-004
	Mn(2)   1.03177e-011
	Mn(3)   3.53431e-022
	Mn(6)   4.59970e-025
	Mn(7)   1.23648e-019
	Na      9.60282e-004
	Ni      1.99183e-010
	O(0)    4.40029e-004
	S(6)    1.54095e-003
	Si      4.00118e-004
	Sr      2.70079e-006
	Zn      1.77583e-013
EQUILIBRIUM_PHASES 8
	Calcite          0.000000e+000  0.000000e+000
	Fe(OH)3(a)       0.000000e+000  1.060468e+000
	Gypsum           0.000000e+000  0.000000e+000
	Pyrolusite       0.000000e+000  2.201449e-006
	SiO2(a)          0.000000e+000  0.000000e+000
SURFACE 8
	Surf_s       	 9.72000e-004  6.00000e+002  1.73000e+001
	Surf_w       	 3.88900e-002  6.00000e+002  1.73000e+001
	-equil  8
END
END
SOLUTION 9
	units  mol/kgw
	temp   25.0
	pH      5.21777
	pe     15.38804
	water   1.00002
	Al      1.80053e-006
	C(4)    2.58774e-003
	Ca      1.18552e-003
	Cd      4.50132e-009
	Cl      4.80141e-004
	Co      2.56706e-009
	Cu(1)   1.14033e-021
	Cu(2)   7.93475e-009
	F       1.58046e-005
	Fe(2)   1.19460e-013
	Fe(3)   1.14517e-006
	K       3.00088e-005
	Mg      3.70109e-004
	Mn(2)   8.71250e-011
	Mn(3)   8.77831e-021
	Mn(7)   4.24617e-020
	Na      9.60282e-004
	Ni      1.90772e-010
	O(0)    4.40029e-004
	S(6)    1.68653e-003
	Si      4.00117e-004
	Sr      2.70079e-006
	Zn      1.80617e-013
EQUILIBRIUM_PHASES 9
	Calcite          0.000000e+000  0.000000e+000
	Fe(OH)3(a)       0.000000e+000  1.062895e+000
	Gypsum           0.000000e+000  0.000000e+000
	Pyrolusite       0.000000e+000  3.695769e-006
	SiO2(a)          0.000000e+000  0.000000e+000
SURFACE 9
	Surf_s       	 9.72000e-004  6.00000e+002  1.73000e+001
	Surf_w       	 3.88900e-002  6.00000e+002  1.73000e+001
	-equil  9
END
END
SOLUTION 10
	units  mol/kgw
	temp   25.0
	pH      4.83523
	pe     15.77057
	water   1.00002
	Al      1.80053e-006
	C(4)    2.58774e-003
	Ca      1.18483e-003
	Cd      4.50132e-009
	Cl      4.80141e-004
	Co      2.66143e-009
	Cu(1)   1.88443e-021
	Cu(2)   3.06558e-008
	F       1.58046e-005
	Fe(2)   6.94121e-013
	Fe(3)   2.83172e-006
	K       3.00088e-005
	Mg      3.70109e-004
	Mn(2)   9.91594e-011
	Mn(3)   2.41921e-020
	Mn(7)   3.44545e-021
	Na      9.60282e-004
	Ni      2.00109e-010
	O(0)    4.40029e-004
	S(6)    1.74485e-003
	Si      4.00118e-004
	Sr      2.70079e-006
	Zn      2.05638e-013
EQUILIBRIUM_PHASES 10
	Calcite          0.000000e+000  0.000000e+000
	Fe(OH)3(a)       0.000000e+000  1.051384e+000
	Gypsum           0.000000e+000  0.000000e+000
	Pyrolusite       0.000000e+000  0.000000e+000
	SiO2(a)          0.000000e+000  0.000000e+000
SURFACE 10
	Surf_s       	 9.72000e-004  6.00000e+002  1.73000e+001
	Surf_w       	 3.88900e-002  6.00000e+002  1.73000e+001
	-equil  10
END
END
SOLUTION 11
	units  mol/kgw
	temp   25.0
	pH      6.23771
	pe      9.41412
	water   0.99654
	Al      1.06956e-002
	C(4)    4.52730e-002
	Ca      1.39337e-002
	Cd      5.29689e-006
	Cl      9.67701e-003
	Co      6.70854e-004
	Cu(1)   2.31812e-012
	Cu(2)   1.04642e-005
	F       1.62981e-003
	Fe(2)   3.96511e-010
	Fe(3)   1.47997e-007
	K       2.03727e-004
	Mg      1.60944e-002
	Mn(2)   2.54886e-002
	Mn(3)   3.74332e-018
	Na      9.57515e-003
	Ni      8.69162e-005
	O(0)    6.47871e-024
	S(6)    4.78324e-002
	Si      1.86866e-003
	Sr      1.52795e-005
	Zn      3.10808e-004
END
KNOBS
	-iter            150
	-tol      1.000e-014
	-step     1.000e+002
	-pe_s     1.000e+001
	-diag      false
SELECTED_OUTPUT
	-file  sel_o$$$.prn   
	-tot   Cl  Ca  S(6)  Fe  Mn  Al  C(4)  Co  Cu  Ni  Zn  Mg
	-mol   Surf_wOH2+  Surf_sOH2+  Surf_wOCu+  Surf_sOCu+
	-equ   Fe(OH)3(a)  Gypsum  Dolomite  pyrolusite  Calcite
TRANSPORT
	-cells     10
	-shifts   100     1
	-output_frequency     10
	-selected_output_frequency      1
	-bcon       3     3
	-timest  1.72800e+004
	-diffc   3.00000e-010
	-tempr   3.00000e+000
	-correct_disp False
	-length
  8.000e-002  8.000e-002  8.000e-002  8.000e-002  8.000e-002  8.000e-002  8.000e-002  8.000e-002  8.000e-002
  8.000e-002
	-disp
  1.600e-002  1.600e-002  1.600e-002  1.600e-002  1.600e-002  1.600e-002  1.600e-002  1.600e-002  1.600e-002
  1.600e-002
	-punch_cells  1  2  3  4  5  6  7  8  9  10
	-print_cells  1  5  10
	-dump            $$$.dmp
	-dump_frequency  5
	-dump_restart    101
END
