DATABASE C:\Program Files (x86)\Phreeqc Interactive 2.16.3926\bin\phreeqc.dat
# Includes Tipping and Hurley's WHAM model
SOLUTION_MASTER_SPECIES
    Ag            Ag+              0     107.868         107.868
    Al            Al+3             0     26.9815         26.9815
    Alkalinity    CO3-2            1     50.05           50.05
    As            H3AsO4          -1     74.9216         74.9216
    As(3)         H3AsO3           0     74.9216        
    As(5)         H3AsO4          -1     74.9216        
    B             H3BO3            0     10.81           10.81
    Ba            Ba+2             0     137.34          137.34
    Br            Br-              0     79.904          79.904
    C             CO3-2            2     12.0111         12.0111
    C(4)          CO3-2            2     61.0173        
    C(-4)         CH4              0     16.042         
    Ca            Ca+2             0     40.08           40.08
    Cd            Cd+2             0     112.4           112.4
    Cl            Cl-              0     35.453          35.453
    Cs            Cs+              0     132.905         132.905
    Cu            Cu+2             0     63.546          63.546
    Cu(1)         Cu+              0     63.546         
    Cu(2)         Cu+2             0     63.546         
    E             e-               0     0               0
    F             F-               0     18.9984         18.9984
    Fe            Fe+2             0     55.847          55.847
    Fe(2)         Fe+2             0     55.847         
    Fe(3)         Fe+3            -2     55.847         
    Fulvate       Fulvate-2        0     650             650
    H             H+              -1     1.008           1.008
    H(0)          H2               0     1.008          
    H(1)          H+              -1     1.008          
    Humate        Humate-2         0     2000            2000
    I             I-               0     126.9044        126.9044
    K             K+               0     39.102          39.102
    Li            Li+              0     6.939           6.939
    Mg            Mg+2             0     24.312          24.312
    Mn            Mn+2             0     54.938          54.938
    Mn(2)         Mn+2             0     54.938         
    Mn(3)         Mn+3             0     54.938         
    Mn(6)         MnO4-2           0     54.938         
    Mn(7)         MnO4-            0     54.938         
    N             NO3-             0     14.0067         14.0067
    Amm           AmmH+            0     AmmH            17
    N(0)          N2               0     14.0067        
    N(3)          NO2-             0     14.0067        
    N(5)          NO3-             0     14.0067        
    Na            Na+              0     22.9898         22.9898
    Ni            Ni+2             0     58.71           58.71
    O             H2O              0     16              16
    O(-2)         H2O              0     18.016         
    O(0)          O2               0     16             
    P             PO4-3            2     30.9738         30.9738
    Pb            Pb+2             0     207.19          207.19
    Rb            Rb+              0     85.47           85.47
    S             SO4-2            0     32.064          32.064
    S(-2)         H2S              0     32.064         
    S(6)          SO4-2            0     96.0616        
    Se            SeO4-2           0     78.96           78.96
    Se(-2)        HSe-             0     78.96          
    Se(4)         SeO3-2           0     78.96          
    Se(6)         SeO4-2           0     78.96          
    Si            H4SiO4           0     28.0843         28.0843
    Sr            Sr+2             0     87.62           87.62
    Zn            Zn+2             0     65.37           65.37
    U             UO2+2            0     238.029         238.029
    U(3)          U+3              0     238.029        
    U(4)          U+4              0     238.029        
    U(5)          UO2+             0     238.029        
    U(6)          UO2+2            0     238.029        

SOLUTION_SPECIES
H+ = H+
    log_k     0
    -gamma    9 0
e- = e-
    log_k     0
H2O = H2O
    log_k     0
Ag+ = Ag+
    log_k     0
Al+3 = Al+3
    log_k     0
AmmH+ = AmmH+
    log_k     0
H3AsO4 = H3AsO4
    log_k     0
H3BO3 = H3BO3
    log_k     0
Ba+2 = Ba+2
    log_k     0
Br- = Br-
    log_k     0
CO3-2 = CO3-2
    log_k     0
    -gamma    5.4 0
Ca+2 = Ca+2
    log_k     0
    -gamma    5 0.165
Cd+2 = Cd+2
    log_k     0
Cl- = Cl-
    log_k     0
    -gamma    3.5 0.015
Cs+ = Cs+
    log_k     0
Cu+2 = Cu+2
    log_k     0
F- = F-
    log_k     0
Fe+2 = Fe+2
    log_k     0
Fulvate-2 = Fulvate-2
    log_k     0
Humate-2 = Humate-2
    log_k     0
I- = I-
    log_k     0
K+ = K+
    log_k     0
    -gamma    3.5 0.015
Li+ = Li+
    log_k     0
Mg+2 = Mg+2
    log_k     0
    -gamma    5.5 0.2
Mn+2 = Mn+2
    log_k     0
NO3- = NO3-
    log_k     0
Na+ = Na+
    log_k     0
    -gamma    4 0.075
Ni+2 = Ni+2
    log_k     0
PO4-3 = PO4-3
    log_k     0
Pb+2 = Pb+2
    log_k     0
Rb+ = Rb+
    log_k     0
SO4-2 = SO4-2
    log_k     0
    -gamma    5 -0.04
SeO4-2 = SeO4-2
    log_k     0
H4SiO4 = H4SiO4
    log_k     0
Sr+2 = Sr+2
    log_k     0
    -gamma    5.26 0.121
UO2+2 = UO2+2
    log_k     0
Zn+2 = Zn+2
    log_k     0
Fe+2 = Fe+3 + e-
    log_k     -13.02
    delta_h   9.68 kcal
Fe+3 + H2O = FeOH+2 + H+
    log_k     -2.19
    delta_h   10.4 kcal
Fe+2 + H2O = FeOH+ + H+
    log_k     -9.5
    delta_h   13.2 kcal
Fe+2 + 3H2O = Fe(OH)3- + 3H+
    log_k     -31
    delta_h   30.3 kcal
Fe+3 + SO4-2 = FeSO4+
    log_k     4.04
    delta_h   3.91 kcal
Cl- + Fe+3 = FeCl+2
    log_k     1.48
    delta_h   5.6 kcal
2Cl- + Fe+3 = FeCl2+
    log_k     2.13
3Cl- + Fe+3 = FeCl3
    log_k     1.13
Fe+2 + SO4-2 = FeSO4
    log_k     2.25
    delta_h   3.23 kcal
H4SiO4 = H3SiO4- + H+
    log_k     -9.83
    delta_h   6.12 kcal
    -analytical_expression -302.3724 -0.050698 15669.69 108.18466 -1119669 0
H4SiO4 = H2SiO4-2 + 2H+
    log_k     -23
    delta_h   17.6 kcal
    -analytical_expression -294.0184 -0.07265 11204.49 108.18466 -1119669 0
H+ + PO4-3 = HPO4-2
    log_k     12.346
    delta_h   -3.53 kcal
2H+ + PO4-3 = H2PO4-
    log_k     19.553
    delta_h   -4.52 kcal
F- + Mg+2 = MgF+
    log_k     1.82
    delta_h   3.2 kcal
Ca+2 + SO4-2 = CaSO4
    log_k     2.3
    delta_h   1.65 kcal
H2O + Mg+2 = MgOH+ + H+
    log_k     -11.44
    delta_h   15.952 kcal
H3BO3 = H2BO3- + H+
    log_k     -9.24
    delta_h   3.224 kcal
AmmH+ = Amm + H+
    log_k     -9.252
    delta_h   12.48 kcal
HPO4-2 + Na+ = NaHPO4-
    log_k     0.29
HPO4-2 + K+ = KHPO4-
    log_k     0.29
HPO4-2 + Mg+2 = MgHPO4
    log_k     2.87
    delta_h   3.3 kcal
Ca+2 + HPO4-2 = CaHPO4
    log_k     2.739
    delta_h   3.3 kcal
CO3-2 + 10H+ + 8e- = CH4 + 3H2O
    log_k     41.071
    delta_h   -61.039 kcal
CO3-2 + 2H+ = CO2 + H2O
    log_k     16.681
    delta_h   -5.738 kcal
    -analytical_expression 464.1965 0.09344813 -26986.16 -165.75951 2248628.9 0
CO3-2 + H+ = HCO3-
    log_k     10.329
    delta_h   -3.561 kcal
    -analytical_expression 107.8871 0.03252849 -5151.79 -38.92561 563713.9 0
    -gamma    5.4 0
CO3-2 + Na+ = NaCO3-
    log_k     1.27
    delta_h   8.91 kcal
HCO3- + Na+ = NaHCO3
    log_k     -0.25
Na+ + SO4-2 = NaSO4-
    log_k     0.7
    delta_h   1.12 kcal
K+ + SO4-2 = KSO4-
    log_k     0.85
    delta_h   2.25 kcal
CO3-2 + Mg+2 = MgCO3
    log_k     2.98
    delta_h   2.713 kcal
    -analytical_expression 0.991 0.00667 0 0 0 0
HCO3- + Mg+2 = MgHCO3+
    log_k     1.07
    delta_h   0.79 kcal
    -analytical_expression -59.215 0 2537.455 20.92298 0 0
Mg+2 + SO4-2 = MgSO4
    log_k     2.37
    delta_h   4.55 kcal
Ca+2 + H2O = CaOH+ + H+
    log_k     -12.78
Ca+2 + HCO3- = CaHCO3+
    log_k     1.106
    delta_h   2.69 kcal
    -analytical_expression 1209.12 0.31294 -34765.05 -478.782 0 0
CO3-2 + Ca+2 = CaCO3
    log_k     3.224
    delta_h   3.545 kcal
    -analytical_expression -1228.732 -0.299444 35512.75 485.818 0 0
HCO3- + Sr+2 = SrHCO3+
    log_k     1.18
    delta_h   6.05 kcal
    -analytical_expression -3.248 0.014867 0 0 0 0
    -gamma    5.4 0
Al+3 + H2O = AlOH+2 + H+
    log_k     -5
    delta_h   11.49 kcal
    -analytical_expression -38.253 0 -656.27 14.327 0 0
Al+3 + 2H2O = Al(OH)2+ + 2H+
    log_k     -10.1
    delta_h   26.9 kcal
    -analytical_expression 88.5 0 -9391.6 -27.121 0 0
Al+3 + 3H2O = Al(OH)3 + 3H+
    log_k     -16.9
    delta_h   39.89 kcal
    -analytical_expression 226.374 0 -18247.8 -73.597 0 0
Al+3 + 4H2O = Al(OH)4- + 4H+
    log_k     -22.7
    delta_h   42.3 kcal
    -analytical_expression 51.578 0 -11168.9 -14.865 0 0
Al+3 + F- = AlF+2
    log_k     7
    delta_h   1.06 kcal
Al+3 + 2F- = AlF2+
    log_k     12.7
    delta_h   1.98 kcal
Al+3 + 3F- = AlF3
    log_k     16.8
    delta_h   2.16 kcal
Al+3 + 4F- = AlF4-
    log_k     19.4
    delta_h   2.2 kcal
Al+3 + SO4-2 = AlSO4+
    log_k     3.5
    delta_h   2.29 kcal
Al+3 + 2SO4-2 = Al(SO4)2-
    log_k     5
    delta_h   3.11 kcal
H+ + SO4-2 = HSO4-
    log_k     1.988
    delta_h   3.85 kcal
    -analytical_expression -56.889 0.006473 2307.9 19.8858 0 0
10H+ + SO4-2 + 8e- = H2S + 4H2O
    log_k     40.644
    delta_h   -65.44 kcal
H2S = HS- + H+
    log_k     -6.994
    delta_h   5.3 kcal
HS- = S-2 + H+
    log_k     -12.918
    delta_h   12.1 kcal
2H2O = O2 + 4H+ + 4e-
    log_k     -86.08
    delta_h   134.79 kcal
2H+ + 2e- = H2
    log_k     -3.15
    delta_h   -1.759 kJ
Fe+3 + 2H2O = Fe(OH)2+ + 2H+
    log_k     -5.67
    delta_h   17.1 kcal
Fe+3 + 3H2O = Fe(OH)3 + 3H+
    log_k     -12.56
    delta_h   24.8 kcal
Fe+3 + 4H2O = Fe(OH)4- + 4H+
    log_k     -21.6
    delta_h   31.9 kcal
Fe+2 + 2H2O = Fe(OH)2 + 2H+
    log_k     -20.57
    delta_h   28.565 kcal
Fe+2 + H2PO4- = FeH2PO4+
    log_k     2.7
Ca+2 + PO4-3 = CaPO4-
    log_k     6.459
    delta_h   3.1 kcal
Ca+2 + H2PO4- = CaH2PO4+
    log_k     1.408
    delta_h   3.4 kcal
Mg+2 + PO4-3 = MgPO4-
    log_k     6.589
    delta_h   3.1 kcal
H2PO4- + Mg+2 = MgH2PO4+
    log_k     1.513
    delta_h   3.4 kcal
Li+ + SO4-2 = LiSO4-
    log_k     0.64
12H+ + 2NO3- + 10e- = N2 + 6H2O
    log_k     207.08
    delta_h   -312.13 kcal
H2O + Sr+2 = SrOH+ + H+
    log_k     -13.29
    -gamma    5 0
Ba+2 + H2O = BaOH+ + H+
    log_k     -13.47
AmmH+ + SO4-2 = AmmHSO4-
    log_k     1.11
CO3-2 + Sr+2 = SrCO3
    log_k     2.81
    delta_h   5.22 kcal
    -analytical_expression -1.019 0.012826 0 0 0 0
    -gamma    5 0
Fe+2 + HPO4-2 = FeHPO4
    log_k     3.6
Fe+3 + HPO4-2 = FeHPO4+
    log_k     5.43
    delta_h   5.76 kcal
Fe+2 + HSO4- = FeHSO4+
    log_k     1.08
H2O = OH- + H+
    log_k     -14
    delta_h   13.362 kcal
    -analytical_expression -283.971 -0.05069842 13323 102.24447 -1119669 0
Fe+3 + H2PO4- = FeH2PO4+2
    log_k     5.43
Fe+3 + HSO4- = FeHSO4+2
    log_k     2.48
Ca+2 + F- = CaF+
    log_k     0.94
    delta_h   4.12 kcal
F- + H3BO3 = BF(OH)3-
    log_k     -0.4
    delta_h   1.85 kcal
2F- + H+ + H3BO3 = BF2(OH)2- + H2O
    log_k     7.63
    delta_h   1.618 kcal
3F- + 2H+ + H3BO3 = BF3OH- + 2H2O
    log_k     13.67
    delta_h   -1.614 kcal
4F- + 3H+ + H3BO3 = BF4- + 3H2O
    log_k     20.28
    delta_h   -1.846 kcal
F- + Fe+3 = FeF+2
    log_k     6.2
    delta_h   2.7 kcal
2F- + Fe+3 = FeF2+
    log_k     10.8
    delta_h   4.8 kcal
3F- + Fe+3 = FeF3
    log_k     14
    delta_h   5.4 kcal
Ca+2 + HSO4- = CaHSO4+
    log_k     1.08
Mn+2 = Mn+3 + e-
    log_k     -25.51
    delta_h   25.8 kcal
Cl- + Mn+2 = MnCl+
    log_k     0.61
2Cl- + Mn+2 = MnCl2
    log_k     0.25
3Cl- + Mn+2 = MnCl3-
    log_k     -0.31
H2O + Mn+2 = MnOH+ + H+
    log_k     -10.59
    delta_h   14.4 kcal
3H2O + Mn+2 = Mn(OH)3- + 3H+
    log_k     -34.8
F- + Mn+2 = MnF+
    log_k     0.84
Mn+2 + SO4-2 = MnSO4
    log_k     2.25
    delta_h   3.37 kcal
Mn+2 + 2NO3- = Mn(NO3)2
    log_k     0.6
    delta_h   -0.396 kcal
HCO3- + Mn+2 = MnHCO3+
    log_k     1.95
4H2O + Mn+2 = MnO4- + 8H+ + 5e-
    log_k     -127.824
    delta_h   176.62 kcal
4H2O + Mn+2 = MnO4-2 + 8H+ + 4e-
    log_k     -118.44
    delta_h   150.02 kcal
6F- + 4H+ + H4SiO4 = SiF6-2 + 4H2O
    log_k     30.18
    delta_h   -16.26 kcal
F- + H+ = HF
    log_k     3.18
    delta_h   3.18 kcal
    -analytical_expression -2.033 0.012645 429.01 0 0 0
2F- + H+ = HF2-
    log_k     3.76
    delta_h   4.55 kcal
2Cl- + Cu+ = CuCl2-
    log_k     5.5
    delta_h   -0.42 kcal
Cu+2 + e- = Cu+
    log_k     2.72
    delta_h   1.65 kcal
3Cl- + Cu+ = CuCl3-2
    log_k     5.7
    delta_h   0.26 kcal
CO3-2 + Cu+2 = CuCO3
    log_k     6.73
2CO3-2 + Cu+2 = Cu(CO3)2-2
    log_k     9.83
Cl- + Cu+2 = CuCl+
    log_k     0.43
    delta_h   8.65 kcal
2Cl- + Cu+2 = CuCl2
    log_k     0.16
    delta_h   10.56 kcal
3Cl- + Cu+2 = CuCl3-
    log_k     -2.29
    delta_h   13.69 kcal
4Cl- + Cu+2 = CuCl4-2
    log_k     -4.59
    delta_h   17.78 kcal
Cu+2 + F- = CuF+
    log_k     1.26
    delta_h   1.62 kcal
Cu+2 + H2O = CuOH+ + H+
    log_k     -8
Cu+2 + 2H2O = Cu(OH)2 + 2H+
    log_k     -13.68
Cu+2 + 3H2O = Cu(OH)3- + 3H+
    log_k     -26.9
Cu+2 + 4H2O = Cu(OH)4-2 + 4H+
    log_k     -39.6
2Cu+2 + 2H2O = Cu2(OH)2+2 + 2H+
    log_k     -10.359
    delta_h   17.539 kcal
    -analytical_expression 2.497 0 -3833 0 0 0
Cu+2 + SO4-2 = CuSO4
    log_k     2.31
    delta_h   1.22 kcal
Cu+2 + 3HS- = Cu(HS)3-
    log_k     25.9
Cl- + Zn+2 = ZnCl+
    log_k     0.43
    delta_h   7.79 kcal
2Cl- + Zn+2 = ZnCl2
    log_k     0.45
    delta_h   8.5 kcal
3Cl- + Zn+2 = ZnCl3-
    log_k     0.5
    delta_h   9.56 kcal
4Cl- + Zn+2 = ZnCl4-2
    log_k     0.2
    delta_h   10.96 kcal
F- + Zn+2 = ZnF+
    log_k     1.15
    delta_h   2.22 kcal
H2O + Zn+2 = ZnOH+ + H+
    log_k     -8.96
    delta_h   13.4 kcal
2H2O + Zn+2 = Zn(OH)2 + 2H+
    log_k     -16.9
3H2O + Zn+2 = Zn(OH)3- + 3H+
    log_k     -28.4
4H2O + Zn+2 = Zn(OH)4-2 + 4H+
    log_k     -41.2
Cl- + H2O + Zn+2 = ZnOHCl + H+
    log_k     -7.48
2HS- + Zn+2 = Zn(HS)2
    log_k     14.94
3HS- + Zn+2 = Zn(HS)3-
    log_k     16.1
SO4-2 + Zn+2 = ZnSO4
    log_k     2.37
    delta_h   1.36 kcal
2SO4-2 + Zn+2 = Zn(SO4)2-2
    log_k     3.28
Cd+2 + Cl- = CdCl+
    log_k     1.98
    delta_h   0.59 kcal
Cd+2 + 2Cl- = CdCl2
    log_k     2.6
    delta_h   1.24 kcal
Cd+2 + 3Cl- = CdCl3-
    log_k     2.4
    delta_h   3.9 kcal
Cd+2 + F- = CdF+
    log_k     1.1
Cd+2 + 2F- = CdF2
    log_k     1.5
2CO3-2 + Cd+2 = Cd(CO3)2-2
    log_k     6.4
Cd+2 + H2O = CdOH+ + H+
    log_k     -10.08
    delta_h   13.1 kcal
Cd+2 + 2H2O = Cd(OH)2 + 2H+
    log_k     -20.35
Cd+2 + 3H2O = Cd(OH)3- + 3H+
    log_k     -33.3
Cd+2 + 4H2O = Cd(OH)4-2 + 4H+
    log_k     -47.35
2Cd+2 + H2O = Cd2OH+3 + H+
    log_k     -9.39
    delta_h   10.9 kcal
Cd+2 + Cl- + H2O = CdOHCl + H+
    log_k     -7.404
    delta_h   4.355 kcal
Cd+2 + NO3- = CdNO3+
    log_k     0.4
    delta_h   -5.2 kcal
Cd+2 + SO4-2 = CdSO4
    log_k     2.46
    delta_h   1.08 kcal
Cd+2 + HS- = CdHS+
    log_k     10.17
Cd+2 + 2HS- = Cd(HS)2
    log_k     16.53
Cd+2 + 3HS- = Cd(HS)3-
    log_k     18.71
Cd+2 + 4HS- = Cd(HS)4-2
    log_k     20.9
Fe+3 + 2SO4-2 = Fe(SO4)2-
    log_k     5.38
    delta_h   4.6 kcal
2Fe+3 + 2H2O = Fe2(OH)2+4 + 2H+
    log_k     -2.95
    delta_h   13.5 kcal
3Fe+3 + 4H2O = Fe3(OH)4+5 + 4H+
    log_k     -6.3
    delta_h   14.3 kcal
Cl- + Pb+2 = PbCl+
    log_k     1.6
    delta_h   4.38 kcal
2Cl- + Pb+2 = PbCl2
    log_k     1.8
    delta_h   1.08 kcal
3Cl- + Pb+2 = PbCl3-
    log_k     1.7
    delta_h   2.17 kcal
4Cl- + Pb+2 = PbCl4-2
    log_k     1.38
    delta_h   3.53 kcal
2CO3-2 + Pb+2 = Pb(CO3)2-2
    log_k     10.64
F- + Pb+2 = PbF+
    log_k     1.25
2F- + Pb+2 = PbF2
    log_k     2.56
3F- + Pb+2 = PbF3-
    log_k     3.42
4F- + Pb+2 = PbF4-2
    log_k     3.1
H2O + Pb+2 = PbOH+ + H+
    log_k     -7.71
2H2O + Pb+2 = Pb(OH)2 + 2H+
    log_k     -17.12
3H2O + Pb+2 = Pb(OH)3- + 3H+
    log_k     -28.06
H2O + 2Pb+2 = Pb2OH+3 + H+
    log_k     -6.36
NO3- + Pb+2 = PbNO3+
    log_k     1.17
Pb+2 + SO4-2 = PbSO4
    log_k     2.75
2HS- + Pb+2 = Pb(HS)2
    log_k     15.27
3HS- + Pb+2 = Pb(HS)3-
    log_k     16.57
4H2O + 3Pb+2 = Pb3(OH)4+2 + 4H+
    log_k     -23.88
    delta_h   26.5 kcal
F- + Fe+2 = FeF+
    log_k     1
Al+3 + HSO4- = AlHSO4+2
    log_k     0.46
2H+ + NO3- + 2e- = NO2- + H2O
    log_k     28.57
    delta_h   -43.76 kcal
Br- + Ni+2 = NiBr+
    log_k     0.5
Cl- + Ni+2 = NiCl+
    log_k     0.4
F- + Ni+2 = NiF+
    log_k     1.3
H2O + Ni+2 = NiOH+ + H+
    log_k     -9.86
    delta_h   12.42 kcal
2H2O + Ni+2 = Ni(OH)2 + 2H+
    log_k     -19
3H2O + Ni+2 = Ni(OH)3- + 3H+
    log_k     -30
Ni+2 + SO4-2 = NiSO4
    log_k     2.29
    delta_h   1.52 kcal
Ag+ + Br- = AgBr
    log_k     4.24
Ag+ + 2Br- = AgBr2-
    log_k     7.28
Ag+ + Cl- = AgCl
    log_k     3.27
    delta_h   -2.68 kcal
Ag+ + 2Cl- = AgCl2-
    log_k     5.27
    delta_h   -3.93 kcal
Ag+ + 3Cl- = AgCl3-2
    log_k     5.29
Ag+ + 4Cl- = AgCl4-3
    log_k     5.51
Ag+ + F- = AgF
    log_k     0.36
    delta_h   -2.83 kcal
Ag+ + HS- = AgHS
    log_k     14.05
Ag+ + 2HS- = Ag(HS)2-
    log_k     18.45
Ag+ + I- = AgI
    log_k     6.6
Ag+ + 2I- = AgI2-
    log_k     10.68
Ag+ + H2O = AgOH + H+
    log_k     -12
Ag+ + 2H2O = Ag(OH)2- + 2H+
    log_k     -24
Ag+ + SO4-2 = AgSO4-
    log_k     1.29
    delta_h   1.49 kcal
Ag+ + NO3- = AgNO3
    log_k     -0.29
Ag+ + 2NO2- = Ag(NO2)2-
    log_k     2.22
Br- + Zn+2 = ZnBr+
    log_k     -0.58
2Br- + Zn+2 = ZnBr2
    log_k     -0.98
I- + Zn+2 = ZnI+
    log_k     -2.91
2I- + Zn+2 = ZnI2
    log_k     -1.69
Br- + Cd+2 = CdBr+
    log_k     2.17
    delta_h   -0.81 kcal
2Br- + Cd+2 = CdBr2
    log_k     2.9
Cd+2 + I- = CdI+
    log_k     2.15
    delta_h   -2.37 kcal
Cd+2 + 2I- = CdI2
    log_k     3.59
Br- + Pb+2 = PbBr+
    log_k     1.77
    delta_h   2.88 kcal
2Br- + Pb+2 = PbBr2
    log_k     1.44
I- + Pb+2 = PbI+
    log_k     1.94
2I- + Pb+2 = PbI2
    log_k     3.2
CO3-2 + Pb+2 = PbCO3
    log_k     7.24
4H2O + Pb+2 = Pb(OH)4-2 + 4H+
    log_k     -39.7
Pb+2 + 2SO4-2 = Pb(SO4)2-2
    log_k     3.47
Ag+ + 3Br- = AgBr3-2
    log_k     8.71
Ag+ + 3I- = AgI3-2
    log_k     13.37
    delta_h   -27.03 kcal
Ag+ + 4I- = AgI4-3
    log_k     14.08
Fe+2 + 2HS- = Fe(HS)2
    log_k     8.95
Fe+2 + 3HS- = Fe(HS)3-
    log_k     10.987
H3AsO3 = H2AsO3- + H+
    log_k     -9.228
    delta_h   6.56 kcal
2H+ + H3AsO4 + 2e- = H3AsO3 + H2O
    log_k     18.897
    delta_h   -30.015 kcal
H3AsO3 = HAsO3-2 + 2H+
    log_k     -21.33
    delta_h   14.2 kcal
H3AsO3 = AsO3-3 + 3H+
    log_k     -34.744
    delta_h   20.25 kcal
H+ + H3AsO3 = H4AsO3+
    log_k     -0.305
H3AsO4 = H2AsO4- + H+
    log_k     -2.243
    delta_h   -1.69 kcal
H3AsO4 = HAsO4-2 + 2H+
    log_k     -9.001
    delta_h   -0.92 kcal
H3AsO4 = AsO4-3 + 3H+
    log_k     -20.597
    delta_h   3.43 kcal
HS- = S2-2 + H+
    log_k     -14.528
    delta_h   11.4 kcal
    -gamma    6.5 0
    -no_check
    -mole_balance
HS- = S3-2 + H+
    log_k     -13.282
    delta_h   10.4 kcal
    -gamma    8 0
    -no_check
    -mole_balance
HS- = S4-2 + H+
    log_k     -9.829
    delta_h   9.7 kcal
    -gamma    10 0
    -no_check
    -mole_balance
HS- = S5-2 + H+
    log_k     -9.595
    delta_h   9.3 kcal
    -gamma    12 0
    -no_check
    -mole_balance
HS- = S6-2 + H+
    log_k     -9.881
    -gamma    14 0
    -no_check
    -mole_balance
Ag+ + 2HS- = Ag(S4)2-3 + 2H+
    log_k     0.991
    -gamma    22 0
    -no_check
    -mole_balance
Ag+ + 2HS- = Ag(S4)S5-3 + 2H+
    log_k     0.68
    -gamma    24 0
    -no_check
    -mole_balance
Ag+ + 2HS- = AgHS(S4)-2 + H+
    log_k     10.43
    -gamma    15 0
    -no_check
    -mole_balance
Cu+2 + HCO3- = CuHCO3+
    log_k     2.7
HCO3- + Zn+2 = ZnHCO3+
    log_k     2.1
CO3-2 + Zn+2 = ZnCO3
    log_k     5.3
2CO3-2 + Zn+2 = Zn(CO3)2-2
    log_k     9.63
Cd+2 + HCO3- = CdHCO3+
    log_k     1.5
CO3-2 + Cd+2 = CdCO3
    log_k     2.9
Cd+2 + 2SO4-2 = Cd(SO4)2-2
    log_k     3.5
HCO3- + Pb+2 = PbHCO3+
    log_k     2.9
2Cl- + Ni+2 = NiCl2
    log_k     0.96
HCO3- + Ni+2 = NiHCO3+
    log_k     2.14
CO3-2 + Ni+2 = NiCO3
    log_k     6.87
2CO3-2 + Ni+2 = Ni(CO3)2-2
    log_k     10.11
Ni+2 + 2SO4-2 = Ni(SO4)2-2
    log_k     1.02
Fulvate-2 + H+ = HFulvate-
    log_k     4.27
H+ + Humate-2 = HHumate-
    log_k     4.27
Fe+3 + Fulvate-2 = FeFulvate+
    log_k     9.4
Fe+3 + Humate-2 = FeHumate+
    log_k     9.4
Cu+2 + Fulvate-2 = CuFulvate
    log_k     6.2
Cu+2 + Humate-2 = CuHumate
    log_k     6.2
Cd+2 + Fulvate-2 = CdFulvate
    log_k     3.5
Cd+2 + Humate-2 = CdHumate
    log_k     3.5
Ag+ + Fulvate-2 = AgFulvate-
    log_k     2.4
Ag+ + Humate-2 = AgHumate-
    log_k     2.4
2F- + 2H+ = H2F2
    log_k     6.768
F- + Na+ = NaF
    log_k     -0.24
Cl- + Fe+2 = FeCl+
    log_k     0.14
Ba+2 + SO4-2 = BaSO4
    log_k     2.7
7H+ + SeO3-2 + 6e- = HSe- + 3H2O
    log_k     42.514
2H+ + SeO4-2 + 2e- = SeO3-2 + H2O
    log_k     30.256
H+ + HSe- = H2Se
    log_k     3.8
    delta_h   -5.3 kcal
2H+ + SeO3-2 = H2SeO3
    log_k     11.25
H+ + SeO3-2 = HSeO3-
    log_k     8.5
H+ + SeO4-2 = HSeO4-
    log_k     1.66
    delta_h   4.91 kcal
Fe+2 + HCO3- = FeHCO3+
    log_k     2
CO3-2 + Fe+2 = FeCO3
    log_k     4.38
CO3-2 + Mn+2 = MnCO3
    log_k     4.9
Ba+2 + HCO3- = BaHCO3+
    log_k     0.982
    delta_h   5.56 kcal
    -analytical_expression -3.0938 0.013669 0 0 0 0
Ba+2 + CO3-2 = BaCO3
    log_k     2.71
    delta_h   3.55 kcal
    -analytical_expression 0.113 0.008721 0 0 0 0
SO4-2 + Sr+2 = SrSO4
    log_k     2.29
    delta_h   2.08 kcal
4H+ + UO2+2 + 2e- = U+4 + 2H2O
    log_k     9.04
    delta_h   -34.43 kcal
U+4 + e- = U+3
    log_k     -8.796
    delta_h   24.4 kcal
H2O + U+4 = UOH+3 + H+
    log_k     -0.54
    delta_h   11.21 kcal
2H2O + U+4 = U(OH)2+2 + 2H+
    log_k     -2.27
    delta_h   17.73 kcal
3H2O + U+4 = U(OH)3+ + 3H+
    log_k     -4.935
    delta_h   22.645 kcal
4H2O + U+4 = U(OH)4 + 4H+
    log_k     -8.498
    delta_h   24.76 kcal
15H2O + 6U+4 = U6(OH)15+9 + 15H+
    log_k     -17.2
F- + U+4 = UF+3
    log_k     9.3
    delta_h   -1.3 kcal
2F- + U+4 = UF2+2
    log_k     16.22
    delta_h   -0.8 kcal
3F- + U+4 = UF3+
    log_k     21.6
    delta_h   0.1 kcal
4F- + U+4 = UF4
    log_k     25.5
    delta_h   -0.87 kcal
5F- + U+4 = UF5-
    log_k     27.01
    delta_h   4.85 kcal
6F- + U+4 = UF6-2
    log_k     29.1
    delta_h   3.3 kcal
Cl- + U+4 = UCl+3
    log_k     1.72
    delta_h   -4.54 kcal
SO4-2 + U+4 = USO4+2
    log_k     6.58
    delta_h   1.9 kcal
2SO4-2 + U+4 = U(SO4)2
    log_k     10.5
    delta_h   7.8 kcal
4CO3-2 + U+4 = U(CO3)4-4
    log_k     32.9
5CO3-2 + U+4 = U(CO3)5-6
    log_k     34
    delta_h   20 kcal
UO2+2 + e- = UO2+
    log_k     1.49
    delta_h   -3.3 kcal
H2O + UO2+2 = UO2OH+ + H+
    log_k     -5.2
    delta_h   11.015 kcal
2H2O + 2UO2+2 = (UO2)2(OH)2+2 + 2H+
    log_k     -5.62
    delta_h   10.23 kcal
5H2O + 3UO2+2 = (UO2)3(OH)5+ + 5H+
    log_k     -15.55
    delta_h   25.075 kcal
CO3-2 + UO2+2 = UO2CO3
    log_k     9.63
    delta_h   1.2 kcal
2CO3-2 + UO2+2 = UO2(CO3)2-2
    log_k     17
    delta_h   4.42 kcal
3CO3-2 + UO2+2 = UO2(CO3)3-4
    log_k     21.63
    delta_h   -9.13 kcal
F- + UO2+2 = UO2F+
    log_k     5.09
    delta_h   0.41 kcal
2F- + UO2+2 = UO2F2
    log_k     8.62
    delta_h   0.5 kcal
3F- + UO2+2 = UO2F3-
    log_k     10.9
    delta_h   0.56 kcal
4F- + UO2+2 = UO2F4-2
    log_k     11.7
    delta_h   0.07 kcal
Cl- + UO2+2 = UO2Cl+
    log_k     0.17
    delta_h   1.9 kcal
SO4-2 + UO2+2 = UO2SO4
    log_k     3.15
    delta_h   4.7 kcal
2SO4-2 + UO2+2 = UO2(SO4)2-2
    log_k     4.14
    delta_h   8.4 kcal
H+ + PO4-3 + UO2+2 = UO2HPO4
    log_k     20.21
    delta_h   -2.1 kcal
2H+ + 2PO4-3 + UO2+2 = UO2(HPO4)2-2
    log_k     43.441
    delta_h   -11.8 kcal
2H+ + PO4-3 + UO2+2 = UO2H2PO4+
    log_k     22.87
    delta_h   -3.7 kcal
4H+ + 2PO4-3 + UO2+2 = UO2(H2PO4)2
    log_k     44.38
    delta_h   -16.5 kcal
6H+ + 3PO4-3 + UO2+2 = UO2(H2PO4)3-
    log_k     66.245
    delta_h   -28.6 kcal
Br- + U+4 = UBr+3
    log_k     1.5
I- + U+4 = UI+3
    log_k     1.3
NO3- + U+4 = UNO3+3
    log_k     1.47
2NO3- + U+4 = U(NO3)2+2
    log_k     2.3
3H2O + UO2+2 = UO2(OH)3- + 3H+
    log_k     -19.2
4H2O + UO2+2 = UO2(OH)4-2 + 4H+
    log_k     -33
H2O + 2UO2+2 = (UO2)2OH+3 + H+
    log_k     -2.7
4H2O + 3UO2+2 = (UO2)3(OH)4+2 + 4H+
    log_k     -11.9
7H2O + 3UO2+2 = (UO2)3(OH)7- + 7H+
    log_k     -31
7H2O + 4UO2+2 = (UO2)4(OH)7+ + 7H+
    log_k     -21.9
2Cl- + UO2+2 = UO2Cl2
    log_k     -1.1
    delta_h   3.6 kcal
Br- + UO2+2 = UO2Br+
    log_k     0.22
NO3- + UO2+2 = UO2NO3+
    log_k     0.3
3H+ + PO4-3 + UO2+2 = UO2H3PO4+2
    log_k     22.813
6CO3-2 + 3UO2+2 = (UO2)3(CO3)6-6
    log_k     54
PO4-3 + UO2+2 = UO2PO4-
    log_k     13.69
3CO3-2 + UO2+ = UO2(CO3)3-5
    log_k     7.43
    delta_h   3.33 kcal

PHASES
Siderite(d)(3)
    FeCO3 = CO3-2 + Fe+2
    log_k     -10.45
Magnesite
    MgCO3 = CO3-2 + Mg+2
    log_k     -8.029
    delta_h   -6.169 kcal
Dolomite(d)
    CaMg(CO3)2 = 2CO3-2 + Ca+2 + Mg+2
    log_k     -16.54
    delta_h   -11.09 kcal
Calcite
    CaCO3 = CO3-2 + Ca+2
    log_k     -8.48
    delta_h   -2.297 kcal
    -analytical_expression -171.9065 -0.077993 2839.319 71.595 0 0
Anhydrite
    CaSO4 = Ca+2 + SO4-2
    log_k     -4.36
    delta_h   -1.71 kcal
    -analytical_expression 197.52 0 -8669.8 -69.835 0 0
Gypsum
    CaSO4:2H2O = Ca+2 + 2H2O + SO4-2
    log_k     -4.58
    delta_h   -0.109 kcal
    -analytical_expression 68.2401 0 -3221.51 -25.0627 0 0
Brucite
    Mg(OH)2 + 2H+ = 2H2O + Mg+2
    log_k     16.84
    delta_h   -27.1 kcal
Chrysotile
    Mg3Si2O5(OH)4 + 6H+ = H2O + 2H4SiO4 + 3Mg+2
    log_k     32.2
    delta_h   -46.8 kcal
    -analytical_expression 13.248 0 10217.1 -6.1894 0 0
Aragonite
    CaCO3 = CO3-2 + Ca+2
    log_k     -8.336
    delta_h   -2.589 kcal
    -analytical_expression -171.9773 -0.077993 2903.293 71.595 0 0
Forsterite
    Mg2SiO4 + 4H+ = H4SiO4 + 2Mg+2
    log_k     28.306
    delta_h   -48.578 kcal
Diopside
    CaMgSi2O6 + 4H+ + 2H2O = Ca+2 + 2H4SiO4 + Mg+2
    log_k     19.894
    delta_h   -32.348 kcal
Clinoenstatite
    MgSiO3 + 2H+ + H2O = H4SiO4 + Mg+2
    log_k     11.342
    delta_h   -20.049 kcal
Tremolite
    Ca2Mg5Si8O22(OH)2 + 14H+ + 8H2O = 2Ca+2 + 8H4SiO4 + 5Mg+2
    log_k     56.574
    delta_h   -96.853 kcal
Sepiolite
    Mg2Si3O7.5OH:3H2O + 4H+ + 0.5H2O = 3H4SiO4 + 2Mg+2
    log_k     15.76
    delta_h   -10.7 kcal
Talc
    Mg3Si4O10(OH)2 + 6H+ + 4H2O = 4H4SiO4 + 3Mg+2
    log_k     21.399
    delta_h   -46.352 kcal
Hydromagnesite
    Mg5(CO3)4(OH)2:4H2O + 2H+ = 4CO3-2 + 6H2O + 5Mg+2
    log_k     -8.762
    delta_h   -52.244 kcal
Adularia
    KAlSi3O8 + 8H2O = Al(OH)4- + 3H4SiO4 + K+
    log_k     -20.573
    delta_h   30.82 kcal
Albite
    NaAlSi3O8 + 8H2O = Al(OH)4- + 3H4SiO4 + Na+
    log_k     -18.002
    delta_h   25.896 kcal
Anorthite
    CaAl2Si2O8 + 8H2O = 2Al(OH)4- + Ca+2 + 2H4SiO4
    log_k     -19.714
    delta_h   11.58 kcal
Analcime
    NaAlSi2O6:H2O + 5H2O = Al(OH)4- + 2H4SiO4 + Na+
    log_k     -12.701
    delta_h   18.206 kcal
Kmica
    KAl3Si3O10(OH)2 + 10H+ = 3Al+3 + 3H4SiO4 + K+
    log_k     12.703
    delta_h   -59.376 kcal
Phlogopite
    KMg3AlSi3O10(OH)2 + 10H+ = Al+3 + 3H4SiO4 + K+ + 3Mg+2
    log_k     43.3
    delta_h   -42.3 kcal
Illite
    K0.6Mg0.25Al2.3Si3.5O10(OH)2 + 11.2H2O = 2.3Al(OH)4- + 1.2H+ + 3.5H4SiO4 + 0.6K+ + 0.25Mg+2
    log_k     -40.267
    delta_h   54.684 kcal
Kaolinite
    Al2Si2O5(OH)4 + 6H+ = 2Al+3 + H2O + 2H4SiO4
    log_k     7.435
    delta_h   -35.3 kcal
Halloysite
    Al2Si2O5(OH)4 + 6H+ = 2Al+3 + H2O + 2H4SiO4
    log_k     12.498
    delta_h   -39.92 kcal
Beidellite
    (NaKMg0.5)0.11Al2.33Si3.67O10(OH)2 + 12H2O = 2.33Al(OH)4- + 2H+ + 3.67H4SiO4 + 0.11K+ + 0.055Mg+2 + 0.11Na+
    log_k     -45.272
    delta_h   60.355 kcal
Chlorite14A
    Mg5Al2Si3O10(OH)8 + 16H+ = 2Al+3 + 6H2O + 3H4SiO4 + 5Mg+2
    log_k     68.38
    delta_h   -151.494 kcal
Alunite
    KAl3(SO4)2(OH)6 + 6H+ = 3Al+3 + 6H2O + K+ + 2SO4-2
    log_k     -1.4
    delta_h   -50.25 kcal
Gibbsite
    Al(OH)3 + 3H+ = Al+3 + 3H2O
    log_k     8.11
    delta_h   -22.8 kcal
Boehmite
    AlOOH + 3H+ = Al+3 + 2H2O
    log_k     8.584
    delta_h   -28.181 kcal
Pyrophyllite
    Al2Si4O10(OH)2 + 12H2O = 2Al(OH)4- + 2H+ + 4H4SiO4
    log_k     -48.314
Phillipsite
    Na0.5K0.5AlSi3O8:H2O + 7H2O = Al(OH)4- + 3H4SiO4 + 0.5K+ + 0.5Na+
    log_k     -19.874
Nahcolite
    NaHCO3 = HCO3- + Na+
    log_k     -0.548
    delta_h   3.72 kcal
Trona
    NaHCO3:Na2CO3:2H2O = CO3-2 + 2H2O + HCO3- + 3Na+
    log_k     -0.795
    delta_h   -18 kcal
Natron
    Na2CO3:10H2O = CO3-2 + 10H2O + 2Na+