# Dumpfile
# Transport simulation 1.  Shift 100.
#
END
SOLUTION 0
	units  mol/kgw
	temp   25.0
	pH     13.70978
	pe      4.00000
	water   0.40000
	Na       1.00000e+00
	O(0)     8.88493e-16
END
END
SOLUTION 1
	units  mol/kgw
	temp   25.0
	pH     11.63279
	pe      4.77508
	water   0.20000
	Amm      1.01658e+00
	N(0)     9.69238e-04
	N(3)     1.76323e-16
	N(5)     3.05100e-12
	Na       1.21200e-06
	O(0)     6.86821e-21
GAS_PHASE  1
	-pressure   8.999894e-01
	-volume   1.000000e+00
	-temperature   2.500000e+01
	Amm(g)            1.720488e-02
	N2(g)             8.827845e-01
END
END
SOLUTION 2
	units  mol/kgw
	temp   25.0
	pH     11.63273
	pe      4.57468
	water   0.20000
	Amm      1.01658e+00
	N(0)     9.69238e-04
	N(3)     4.41439e-17
	N(5)     3.03449e-13
	Na       1.81800e-13
	O(0)     1.08394e-21
GAS_PHASE  2
	-pressure   8.999894e-01
	-volume   1.000000e+00
	-temperature   2.500000e+01
	Amm(g)            1.720488e-02
	N2(g)             8.827845e-01
END
END
SOLUTION 3
	units  mol/kgw
	temp   25.0
	pH     11.63273
	pe     -6.55483
	water   0.20000
	Amm      1.01658e+00
	H(0)     9.88048e-14
	N(0)     9.69238e-04
	Na       1.79978e-20
GAS_PHASE  3
	-pressure   8.999894e-01
	-volume   1.000000e+00
	-temperature   2.500000e+01
	Amm(g)            1.720488e-02
	N2(g)             8.827845e-01
END
END
SOLUTION 4
	units  mol/kgw
	temp   25.0
	pH     11.63273
	pe      4.20544
	water   0.20000
	Amm      1.01658e+00
	N(0)     9.69238e-04
	N(3)     3.44461e-18
	N(5)     4.32383e-15
	O(0)     3.61436e-23
GAS_PHASE  4
	-pressure   8.999894e-01
	-volume   1.000000e+00
	-temperature   2.500000e+01
	Amm(g)            1.720488e-02
	N2(g)             8.827845e-01
END
END
SOLUTION 5
	units  mol/kgw
	temp   25.0
	pH     11.63273
	pe      3.83565
	water   0.20000
	Amm      1.01658e+00
	N(0)     9.69238e-04
	N(3)     2.67776e-19
	N(5)     6.12238e-17
	O(0)     1.19915e-24
GAS_PHASE  5
	-pressure   8.999894e-01
	-volume   1.000000e+00
	-temperature   2.500000e+01
	Amm(g)            1.720488e-02
	N2(g)             8.827845e-01
END
END
SOLUTION 6
	units  mol/kgw
	temp   25.0
	pH     11.63273
	pe      3.83565
	water   0.20000
	Amm      1.01658e+00
	N(0)     9.69238e-04
	N(3)     2.67776e-19
	N(5)     6.12238e-17
	O(0)     1.19915e-24
GAS_PHASE  6
	-pressure   8.999894e-01
	-volume   1.000000e+00
	-temperature   2.500000e+01
	Amm(g)            1.720488e-02
	N2(g)             8.827845e-01
END
END
SOLUTION 7
	units  mol/kgw
	temp   25.0
	pH     11.63273
	pe      3.83565
	water   0.20000
	Amm      1.01658e+00
	N(0)     9.69238e-04
	N(3)     2.67776e-19
	N(5)     6.12238e-17
	O(0)     1.19915e-24
GAS_PHASE  7
	-pressure   8.999894e-01
	-volume   1.000000e+00
	-temperature   2.500000e+01
	Amm(g)            1.720488e-02
	N2(g)             8.827845e-01
END
END
SOLUTION 8
	units  mol/kgw
	temp   25.0
	pH     11.63273
	pe      3.83565
	water   0.20000
	Amm      1.01658e+00
	N(0)     9.69238e-04
	N(3)     2.67776e-19
	N(5)     6.12238e-17
	O(0)     1.19915e-24
GAS_PHASE  8
	-pressure   8.999894e-01
	-volume   1.000000e+00
	-temperature   2.500000e+01
	Amm(g)            1.720488e-02
	N2(g)             8.827845e-01
END
END
SOLUTION 9
	units  mol/kgw
	temp   25.0
	pH     11.63273
	pe      3.83565
	water   0.20000
	Amm      1.01658e+00
	N(0)     9.69238e-04
	N(3)     2.67776e-19
	N(5)     6.12238e-17
	O(0)     1.19915e-24
GAS_PHASE  9
	-pressure   8.999894e-01
	-volume   1.000000e+00
	-temperature   2.500000e+01
	Amm(g)            1.720488e-02
	N2(g)             8.827845e-01
END
END
SOLUTION 10
	units  mol/kgw
	temp   25.0
	pH     11.63273
	pe      3.83565
	water   0.20000
	Amm      1.01658e+00
	N(0)     9.69238e-04
	N(3)     2.67776e-19
	N(5)     6.12238e-17
	O(0)     1.19915e-24
GAS_PHASE  10
	-pressure   8.999894e-01
	-volume   1.000000e+00
	-temperature   2.500000e+01
	Amm(g)            1.720488e-02
	N2(g)             8.827845e-01
END
END
SOLUTION 11
	units  mol/kgw
	temp   25.0
	pH     11.63273
	pe      3.83565
	water   0.20000
	Amm      1.01658e+00
	N(0)     9.69238e-04
	N(3)     2.67776e-19
	N(5)     6.12238e-17
	O(0)     1.19915e-24
GAS_PHASE  11
	-pressure   8.999894e-01
	-volume   1.000000e+00
	-temperature   2.500000e+01
	Amm(g)            1.720488e-02
	N2(g)             8.827845e-01
END
END
SOLUTION 12
	units  mol/kgw
	temp   25.0
	pH     11.63273
	pe      3.83565
	water   0.20000
	Amm      1.01658e+00
	N(0)     9.69238e-04
	N(3)     2.67776e-19
	N(5)     6.12238e-17
	O(0)     1.19915e-24
GAS_PHASE  12
	-pressure   8.999894e-01
	-volume   1.000000e+00
	-temperature   2.500000e+01
	Amm(g)            1.720488e-02
	N2(g)             8.827845e-01
END
END
SOLUTION 13
	units  mol/kgw
	temp   25.0
	pH     11.63273
	pe      3.83565
	water   0.20000
	Amm      1.01658e+00
	N(0)     9.69238e-04
	N(3)     2.67776e-19
	N(5)     6.12238e-17
	O(0)     1.19915e-24
GAS_PHASE  13
	-pressure   8.999894e-01
	-volume   1.000000e+00
	-temperature   2.500000e+01
	Amm(g)            1.720488e-02
	N2(g)             8.827845e-01
END
END
SOLUTION 14
	units  mol/kgw
	temp   25.0
	pH     11.63273
	pe      3.83565
	water   0.20000
	Amm      1.01658e+00
	N(0)     9.69238e-04
	N(3)     2.67776e-19
	N(5)     6.12238e-17
	O(0)     1.19915e-24
GAS_PHASE  14
	-pressure   8.999894e-01
	-volume   1.000000e+00
	-temperature   2.500000e+01
	Amm(g)            1.720488e-02
	N2(g)             8.827845e-01
END
END
SOLUTION 15
	units  mol/kgw
	temp   25.0
	pH     11.63273
	pe      3.83565
	water   0.20000
	Amm      1.01658e+00
	N(0)     9.69238e-04
	N(3)     2.67776e-19
	N(5)     6.12238e-17
	O(0)     1.19915e-24
GAS_PHASE  15
	-pressure   8.999894e-01
	-volume   1.000000e+00
	-temperature   2.500000e+01
	Amm(g)            1.720488e-02
	N2(g)             8.827845e-01
END
END
SOLUTION 16
	units  mol/kgw
	temp   25.0
	pH     11.63273
	pe      3.83565
	water   0.20000
	Amm      1.01658e+00
	N(0)     9.69238e-04
	N(3)     2.67776e-19
	N(5)     6.12238e-17
	O(0)     1.19915e-24
GAS_PHASE  16
	-pressure   8.999894e-01
	-volume   1.000000e+00
	-temperature   2.500000e+01
	Amm(g)            1.720488e-02
	N2(g)             8.827845e-01
END
END
SOLUTION 17
	units  mol/kgw
	temp   25.0
	pH     11.63273
	pe      3.83565
	water   0.20000
	Amm      1.01658e+00
	N(0)     9.69238e-04
	N(3)     2.67776e-19
	N(5)     6.12238e-17
	O(0)     1.19915e-24
GAS_PHASE  17
	-pressure   8.999894e-01
	-volume   1.000000e+00
	-temperature   2.500000e+01
	Amm(g)            1.720488e-02
	N2(g)             8.827845e-01
END
END
SOLUTION 18
	units  mol/kgw
	temp   25.0
	pH     11.63273
	pe      3.83565
	water   0.20000
	Amm      1.01658e+00
	N(0)     9.69238e-04
	N(3)     2.67776e-19
	N(5)     6.12238e-17
	O(0)     1.19915e-24
GAS_PHASE  18
	-pressure   8.999894e-01
	-volume   1.000000e+00
	-temperature   2.500000e+01
	Amm(g)            1.720488e-02
	N2(g)             8.827845e-01
END
END
SOLUTION 19
	units  mol/kgw
	temp   25.0
	pH     11.63273
	pe      3.83565
	water   0.20000
	Amm      1.01658e+00
	N(0)     9.69238e-04
	N(3)     2.67776e-19
	N(5)     6.12238e-17
	O(0)     1.19915e-24
GAS_PHASE  19
	-pressure   8.999894e-01
	-volume   1.000000e+00
	-temperature   2.500000e+01
	Amm(g)            1.720488e-02
	N2(g)             8.827845e-01
END
END
SOLUTION 20
	units  mol/kgw
	temp   25.0
	pH     11.63273
	pe      3.83565
	water   0.20000
	Amm      1.01658e+00
	N(0)     9.69238e-04
	N(3)     2.67776e-19
	N(5)     6.12238e-17
	O(0)     1.19915e-24
GAS_PHASE  20
	-pressure   8.999894e-01
	-volume   1.000000e+00
	-temperature   2.500000e+01
	Amm(g)            1.720488e-02
	N2(g)             8.827845e-01
END
END
SOLUTION 21
	units  mol/kgw
	temp   25.0
	pH     11.63273
	pe      3.83565
	water   0.20000
	Amm      1.01658e+00
	N(0)     9.69238e-04
	N(3)     2.67776e-19
	N(5)     6.12238e-17
	O(0)     1.19915e-24
GAS_PHASE  21
	-pressure   8.999894e-01
	-volume   1.000000e+00
	-temperature   2.500000e+01
	Amm(g)            1.720488e-02
	N2(g)             8.827845e-01
END
END
SOLUTION 22
	units  mol/kgw
	temp   25.0
	pH     11.63273
	pe      3.83565
	water   0.20000
	Amm      1.01658e+00
	N(0)     9.69238e-04
	N(3)     2.67776e-19
	N(5)     6.12238e-17
	O(0)     1.19915e-24
GAS_PHASE  22
	-pressure   8.999894e-01
	-volume   1.000000e+00
	-temperature   2.500000e+01
	Amm(g)            1.720488e-02
	N2(g)             8.827845e-01
END
END
SOLUTION 23
	units  mol/kgw
	temp   25.0
	pH     11.63273
	pe      3.83565
	water   0.20000
	Amm      1.01658e+00
	N(0)     9.69238e-04
	N(3)     2.67776e-19
	N(5)     6.12238e-17
	O(0)     1.19915e-24
GAS_PHASE  23
	-pressure   8.999894e-01
	-volume   1.000000e+00
	-temperature   2.500000e+01
	Amm(g)            1.720488e-02
	N2(g)             8.827845e-01
END
END
SOLUTION 24
	units  mol/kgw
	temp   25.0
	pH     11.63273
	pe      3.83565
	water   0.20000
	Amm      1.01658e+00
	N(0)     9.69238e-04
	N(3)     2.67776e-19
	N(5)     6.12238e-17
	O(0)     1.19915e-24
GAS_PHASE  24
	-pressure   8.999894e-01
	-volume   1.000000e+00
	-temperature   2.500000e+01
	Amm(g)            1.720488e-02
	N2(g)             8.827845e-01
END
END
SOLUTION 25
	units  mol/kgw
	temp   25.0
	pH     11.63273
	pe      3.83565
	water   0.20000
	Amm      1.01658e+00
	N(0)     9.69238e-04
	N(3)     2.67776e-19
	N(5)     6.12238e-17
	O(0)     1.19915e-24
GAS_PHASE  25
	-pressure   8.999894e-01
	-volume   1.000000e+00
	-temperature   2.500000e+01
	Amm(g)            1.720488e-02
	N2(g)             8.827845e-01
END
END
SOLUTION 26
	units  mol/kgw
	temp   25.0
	pH     11.63273
	pe      3.83565
	water   0.20000
	Amm      1.01658e+00
	N(0)     9.69238e-04
	N(3)     2.67776e-19
	N(5)     6.12238e-17
	O(0)     1.19915e-24
GAS_PHASE  26
	-pressure   8.999894e-01
	-volume   1.000000e+00
	-temperature   2.500000e+01
	Amm(g)            1.720488e-02
	N2(g)             8.827845e-01
END
END
SOLUTION 27
	units  mol/kgw
	temp   25.0
	pH     11.63273
	pe      3.83565
	water   0.20000
	Amm      1.01658e+00
	N(0)     9.69238e-04
	N(3)     2.67776e-19
	N(5)     6.12238e-17
	O(0)     1.19915e-24
GAS_PHASE  27
	-pressure   8.999894e-01
	-volume   1.000000e+00
	-temperature   2.500000e+01
	Amm(g)            1.720488e-02
	N2(g)             8.827845e-01
END
END
SOLUTION 28
	units  mol/kgw
	temp   25.0
	pH     11.63273
	pe      3.83565
	water   0.20000
	Amm      1.01658e+00
	N(0)     9.69238e-04
	N(3)     2.67776e-19
	N(5)     6.12238e-17
	O(0)     1.19915e-24
GAS_PHASE  28
	-pressure   8.999894e-01
	-volume   1.000000e+00
	-temperature   2.500000e+01
	Amm(g)            1.720488e-02
	N2(g)             8.827845e-01
END
END
SOLUTION 29
	units  mol/kgw
	temp   25.0
	pH     11.63273
	pe      3.83565
	water   0.20000
	Amm      1.01658e+00
	N(0)     9.69238e-04
	N(3)     2.67776e-19
	N(5)     6.12238e-17
	O(0)     1.19915e-24
GAS_PHASE  29
	-pressure   8.999894e-01
	-volume   1.000000e+00
	-temperature   2.500000e+01
	Amm(g)            1.720488e-02
	N2(g)             8.827845e-01
END
END
SOLUTION 30
	units  mol/kgw
	temp   25.0
	pH     11.63273
	pe      3.83565
	water   0.20000
	Amm      1.01658e+00
	N(0)     9.69238e-04
	N(3)     2.67776e-19
	N(5)     6.12238e-17
	O(0)     1.19915e-24
GAS_PHASE  30
	-pressure   8.999894e-01
	-volume   1.000000e+00
	-temperature   2.500000e+01
	Amm(g)            1.720488e-02
	N2(g)             8.827845e-01
END
END
SOLUTION 31
	units  mol/kgw
	temp   25.0
	pH     11.63273
	pe      3.83565
	water   0.20000
	Amm      1.01658e+00
	N(0)     9.69238e-04
	N(3)     2.67776e-19
	N(5)     6.12238e-17
	O(0)     1.19915e-24
GAS_PHASE  31
	-pressure   8.999894e-01
	-volume   1.000000e+00
	-temperature   2.500000e+01
	Amm(g)            1.720488e-02
	N2(g)             8.827845e-01
END
END
SOLUTION 32
	units  mol/kgw
	temp   25.0
	pH     11.63273
	pe      3.83565
	water   0.20000
	Amm      1.01658e+00
	N(0)     9.69238e-04
	N(3)     2.67776e-19
	N(5)     6.12238e-17
	O(0)     1.19915e-24
GAS_PHASE  32
	-pressure   8.999894e-01
	-volume   1.000000e+00
	-temperature   2.500000e+01
	Amm(g)            1.720488e-02
	N2(g)             8.827845e-01
END
END
SOLUTION 33
	units  mol/kgw
	temp   25.0
	pH     11.63273
	pe      3.83565
	water   0.20000
	Amm      1.01658e+00
	N(0)     9.69238e-04
	N(3)     2.67776e-19
	N(5)     6.12238e-17
	O(0)     1.19915e-24
GAS_PHASE  33
	-pressure   8.999894e-01
	-volume   1.000000e+00
	-temperature   2.500000e+01
	Amm(g)            1.720488e-02
	N2(g)             8.827845e-01
END
END
SOLUTION 34
	units  mol/kgw
	temp   25.0
	pH     11.63273
	pe      3.83565
	water   0.20000
	Amm      1.01658e+00
	N(0)     9.69238e-04
	N(3)     2.67776e-19
	N(5)     6.12238e-17
	O(0)     1.19915e-24
GAS_PHASE  34
	-pressure   8.999894e-01
	-volume   1.000000e+00
	-temperature   2.500000e+01
	Amm(g)            1.720488e-02
	N2(g)             8.827845e-01
END
END
SOLUTION 35
	units  mol/kgw
	temp   25.0
	pH     11.63273
	pe      3.83565
	water   0.20000
	Amm      1.01658e+00
	N(0)     9.69238e-04
	N(3)     2.67776e-19
	N(5)     6.12238e-17
	O(0)     1.19915e-24
GAS_PHASE  35
	-pressure   8.999894e-01
	-volume   1.000000e+00
	-temperature   2.500000e+01
	Amm(g)            1.720488e-02
	N2(g)             8.827845e-01
END
END
SOLUTION 36
	units  mol/kgw
	temp   25.0
	pH     11.63273
	pe      3.83565
	water   0.20000
	Amm      1.01658e+00
	N(0)     9.69238e-04
	N(3)     2.67776e-19
	N(5)     6.12238e-17
	O(0)     1.19915e-24
GAS_PHASE  36
	-pressure   8.999894e-01
	-volume   1.000000e+00
	-temperature   2.500000e+01
	Amm(g)            1.720488e-02
	N2(g)             8.827845e-01
END
END
SOLUTION 37
	units  mol/kgw
	temp   25.0
	pH     11.63273
	pe      3.83565
	water   0.20000
	Amm      1.01658e+00
	N(0)     9.69238e-04
	N(3)     2.67776e-19
	N(5)     6.12238e-17
	O(0)     1.19915e-24
GAS_PHASE  37
	-pressure   8.999894e-01
	-volume   1.000000e+00
	-temperature   2.500000e+01
	Amm(g)            1.720488e-02
	N2(g)             8.827845e-01
END
END
SOLUTION 38
	units  mol/kgw
	temp   25.0
	pH     11.63273
	pe      3.83565
	water   0.20000
	Amm      1.01658e+00
	N(0)     9.69238e-04
	N(3)     2.67776e-19
	N(5)     6.12238e-17
	O(0)     1.19915e-24
GAS_PHASE  38
	-pressure   8.999894e-01
	-volume   1.000000e+00
	-temperature   2.500000e+01
	Amm(g)            1.720488e-02
	N2(g)             8.827845e-01
END
END
SOLUTION 39
	units  mol/kgw
	temp   25.0
	pH     11.63273
	pe      3.83565
	water   0.20000
	Amm      1.01658e+00
	N(0)     9.69238e-04
	N(3)     2.67776e-19
	N(5)     6.12238e-17
	O(0)     1.19915e-24
GAS_PHASE  39
	-pressure   8.999894e-01
	-volume   1.000000e+00
	-temperature   2.500000e+01
	Amm(g)            1.720488e-02
	N2(g)             8.827845e-01
END
END
SOLUTION 40
	units  mol/kgw
	temp   25.0
	pH     11.63273
	pe      3.83565
	water   0.20000
	Amm      1.01658e+00
	N(0)     9.69238e-04
	N(3)     2.67776e-19
	N(5)     6.12238e-17
	O(0)     1.19915e-24
GAS_PHASE  40
	-pressure   8.999894e-01
	-volume   1.000000e+00
	-temperature   2.500000e+01
	Amm(g)            1.720488e-02
	N2(g)             8.827845e-01
END
END
SOLUTION 41
	units  mol/kgw
	temp   25.0
	pH     11.63273
	pe      3.83565
	water   0.20000
	Amm      1.01658e+00
	N(0)     9.69238e-04
	N(3)     2.67776e-19
	N(5)     6.12238e-17
	O(0)     1.19915e-24
GAS_PHASE  41
	-pressure   8.999894e-01
	-volume   1.000000e+00
	-temperature   2.500000e+01
	Amm(g)            1.720488e-02
	N2(g)             8.827845e-01
END
END
SOLUTION 42
	units  mol/kgw
	temp   25.0
	pH     11.63273
	pe      3.83565
	water   0.20000
	Amm      1.01658e+00
	N(0)     9.69238e-04
	N(3)     2.67776e-19
	N(5)     6.12238e-17
	O(0)     1.19915e-24
GAS_PHASE  42
	-pressure   8.999894e-01
	-volume   1.000000e+00
	-temperature   2.500000e+01
	Amm(g)            1.720488e-02
	N2(g)             8.827845e-01
END
END
SOLUTION 43
	units  mol/kgw
	temp   25.0
	pH     11.63273
	pe      3.83565
	water   0.20000
	Amm      1.01658e+00
	N(0)     9.69238e-04
	N(3)     2.67776e-19
	N(5)     6.12238e-17
	O(0)     1.19915e-24
GAS_PHASE  43
	-pressure   8.999894e-01
	-volume   1.000000e+00
	-temperature   2.500000e+01
	Amm(g)            1.720488e-02
	N2(g)             8.827845e-01
END
END
SOLUTION 44
	units  mol/kgw
	temp   25.0
	pH     11.63273
	pe      3.83565
	water   0.20000
	Amm      1.01658e+00
	N(0)     9.69238e-04
	N(3)     2.67776e-19
	N(5)     6.12238e-17
	O(0)     1.19915e-24
GAS_PHASE  44
	-pressure   8.999894e-01
	-volume   1.000000e+00
	-temperature   2.500000e+01
	Amm(g)            1.720488e-02
	N2(g)             8.827845e-01
END
END
SOLUTION 45
	units  mol/kgw
	temp   25.0
	pH     11.63273
	pe      3.83565
	water   0.20000
	Amm      1.01658e+00
	N(0)     9.69238e-04
	N(3)     2.67776e-19
	N(5)     6.12238e-17
	O(0)     1.19915e-24
GAS_PHASE  45
	-pressure   8.999894e-01
	-volume   1.000000e+00
	-temperature   2.500000e+01
	Amm(g)            1.720488e-02
	N2(g)             8.827845e-01
END
END
SOLUTION 46
	units  mol/kgw
	temp   25.0
	pH     11.63273
	pe      3.83565
	water   0.20000
	Amm      1.01658e+00
	N(0)     9.69238e-04
	N(3)     2.67776e-19
	N(5)     6.12238e-17
	O(0)     1.19915e-24
GAS_PHASE  46
	-pressure   8.999894e-01
	-volume   1.000000e+00
	-temperature   2.500000e+01
	Amm(g)            1.720488e-02
	N2(g)             8.827845e-01
END
END
SOLUTION 47
	units  mol/kgw
	temp   25.0
	pH     11.63273
	pe      3.83565
	water   0.20000
	Amm      1.01658e+00
	N(0)     9.69238e-04
	N(3)     2.67776e-19
	N(5)     6.12238e-17
	O(0)     1.19915e-24
GAS_PHASE  47
	-pressure   8.999894e-01
	-volume   1.000000e+00
	-temperature   2.500000e+01
	Amm(g)            1.720488e-02
	N2(g)             8.827845e-01
END
END
SOLUTION 48
	units  mol/kgw
	temp   25.0
	pH     11.63273
	pe      3.83565
	water   0.20000
	Amm      1.01658e+00
	N(0)     9.69238e-04
	N(3)     2.67776e-19
	N(5)     6.12238e-17
	O(0)     1.19915e-24
GAS_PHASE  48
	-pressure   8.999894e-01
	-volume   1.000000e+00
	-temperature   2.500000e+01
	Amm(g)            1.720488e-02
	N2(g)             8.827845e-01
END
END
SOLUTION 49
	units  mol/kgw
	temp   25.0
	pH     11.63273
	pe      3.83565
	water   0.20000
	Amm      1.01658e+00
	N(0)     9.69238e-04
	N(3)     2.67776e-19
	N(5)     6.12238e-17
	O(0)     1.19915e-24
GAS_PHASE  49
	-pressure   8.999894e-01
	-volume   1.000000e+00
	-temperature   2.500000e+01
	Amm(g)            1.720488e-02
	N2(g)             8.827845e-01
END
END
SOLUTION 50
	units  mol/kgw
	temp   25.0
	pH     11.63273
	pe      3.83565
	water   0.20000
	Amm      1.01658e+00
	N(0)     9.69238e-04
	N(3)     2.67776e-19
	N(5)     6.12238e-17
	O(0)     1.19915e-24
GAS_PHASE  50
	-pressure   8.999894e-01
	-volume   1.000000e+00
	-temperature   2.500000e+01
	Amm(g)            1.720488e-02
	N2(g)             8.827845e-01
END
END
SOLUTION 51
	units  mol/kgw
	temp   25.0
	pH     11.63273
	pe      3.83565
	water   0.20000
	Amm      1.01658e+00
	N(0)     9.69238e-04
	N(3)     2.67776e-19
	N(5)     6.12238e-17
	O(0)     1.19915e-24
GAS_PHASE  51
	-pressure   8.999894e-01
	-volume   1.000000e+00
	-temperature   2.500000e+01
	Amm(g)            1.720488e-02
	N2(g)             8.827845e-01
END
END
SOLUTION 52
	units  mol/kgw
	temp   25.0
	pH     11.63273
	pe      3.83565
	water   0.20000
	Amm      1.01658e+00
	N(0)     9.69238e-04
	N(3)     2.67776e-19
	N(5)     6.12238e-17
	O(0)     1.19915e-24
GAS_PHASE  52
	-pressure   8.999894e-01
	-volume   1.000000e+00
	-temperature   2.500000e+01
	Amm(g)            1.720488e-02
	N2(g)             8.827845e-01
END
END
SOLUTION 53
	units  mol/kgw
	temp   25.0
	pH     11.63273
	pe      3.83565
	water   0.20000
	Amm      1.01658e+00
	N(0)     9.69238e-04
	N(3)     2.67776e-19
	N(5)     6.12238e-17
	O(0)     1.19915e-24
GAS_PHASE  53
	-pressure   8.999894e-01
	-volume   1.000000e+00
	-temperature   2.500000e+01
	Amm(g)            1.720488e-02
	N2(g)             8.827845e-01
END
END
SOLUTION 54
	units  mol/kgw
	temp   25.0
	pH     11.63273
	pe      3.83565
	water   0.20000
	Amm      1.01658e+00
	N(0)     9.69238e-04
	N(3)     2.67776e-19
	N(5)     6.12238e-17
	O(0)     1.19915e-24
GAS_PHASE  54
	-pressure   8.999894e-01
	-volume   1.000000e+00
	-temperature   2.500000e+01
	Amm(g)            1.720488e-02
	N2(g)             8.827845e-01
END
END
SOLUTION 55
	units  mol/kgw
	temp   25.0
	pH     11.63273
	pe      3.83565
	water   0.20000
	Amm      1.01658e+00
	N(0)     9.69238e-04
	N(3)     2.67776e-19
	N(5)     6.12238e-17
	O(0)     1.19915e-24
GAS_PHASE  55
	-pressure   8.999894e-01
	-volume   1.000000e+00
	-temperature   2.500000e+01
	Amm(g)            1.720488e-02
	N2(g)             8.827845e-01
END
END
SOLUTION 56
	units  mol/kgw
	temp   25.0
	pH     11.63273
	pe      3.83565
	water   0.20000
	Amm      1.01658e+00
	N(0)     9.69238e-04
	N(3)     2.67776e-19
	N(5)     6.12238e-17
	O(0)     1.19915e-24
GAS_PHASE  56
	-pressure   8.999894e-01
	-volume   1.000000e+00
	-temperature   2.500000e+01
	Amm(g)            1.720488e-02
	N2(g)             8.827845e-01
END
END
SOLUTION 57
	units  mol/kgw
	temp   25.0
	pH     11.63273
	pe      3.83565
	water   0.20000
	Amm      1.01658e+00
	N(0)     9.69238e-04
	N(3)     2.67776e-19
	N(5)     6.12238e-17
	O(0)     1.19915e-24
GAS_PHASE  57
	-pressure   8.999894e-01
	-volume   1.000000e+00
	-temperature   2.500000e+01
	Amm(g)            1.720488e-02
	N2(g)             8.827845e-01
END
END
SOLUTION 58
	units  mol/kgw
	temp   25.0
	pH     11.63273
	pe      3.83565
	water   0.20000
	Amm      1.01658e+00
	N(0)     9.69238e-04
	N(3)     2.67776e-19
	N(5)     6.12238e-17
	O(0)     1.19915e-24
GAS_PHASE  58
	-pressure   8.999894e-01
	-volume   1.000000e+00
	-temperature   2.500000e+01
	Amm(g)            1.720488e-02
	N2(g)             8.827845e-01
END
END
SOLUTION 59
	units  mol/kgw
	temp   25.0
	pH     11.63273
	pe      3.83565
	water   0.20000
	Amm      1.01658e+00
	N(0)     9.69238e-04
	N(3)     2.67776e-19
	N(5)     6.12238e-17
	O(0)     1.19915e-24
GAS_PHASE  59
	-pressure   8.999894e-01
	-volume   1.000000e+00
	-temperature   2.500000e+01
	Amm(g)            1.720488e-02
	N2(g)             8.827845e-01
END
END
SOLUTION 60
	units  mol/kgw
	temp   25.0
	pH     11.63273
	pe      3.83565
	water   0.20000
	Amm      1.01658e+00
	N(0)     9.69238e-04
	N(3)     2.67776e-19
	N(5)     6.12238e-17
	O(0)     1.19915e-24
GAS_PHASE  60
	-pressure   8.999894e-01
	-volume   1.000000e+00
	-temperature   2.500000e+01
	Amm(g)            1.720488e-02
	N2(g)             8.827845e-01
END
END
SOLUTION 61
	units  mol/kgw
	temp   25.0
	pH     11.63273
	pe      3.83565
	water   0.20000
	Amm      1.01658e+00
	N(0)     9.69238e-04
	N(3)     2.67776e-19
	N(5)     6.12238e-17
	O(0)     1.19915e-24
GAS_PHASE  61
	-pressure   8.999894e-01
	-volume   1.000000e+00
	-temperature   2.500000e+01
	Amm(g)            1.720488e-02
	N2(g)             8.827845e-01
END
END
SOLUTION 62
	units  mol/kgw
	temp   25.0
	pH     11.63273
	pe      3.83565
	water   0.20000
	Amm      1.01658e+00
	N(0)     9.69238e-04
	N(3)     2.67776e-19
	N(5)     6.12238e-17
	O(0)     1.19915e-24
GAS_PHASE  62
	-pressure   8.999894e-01
	-volume   1.000000e+00
	-temperature   2.500000e+01
	Amm(g)            1.720488e-02
	N2(g)             8.827845e-01
END
END
SOLUTION 63
	units  mol/kgw
	temp   25.0
	pH     11.63273
	pe      3.83565
	water   0.20000
	Amm      1.01658e+00
	N(0)     9.69238e-04
	N(3)     2.67776e-19
	N(5)     6.12238e-17
	O(0)     1.19915e-24
GAS_PHASE  63
	-pressure   8.999894e-01
	-volume   1.000000e+00
	-temperature   2.500000e+01
	Amm(g)            1.720488e-02
	N2(g)             8.827845e-01
END
END
SOLUTION 64
	units  mol/kgw
	temp   25.0
	pH     11.63273
	pe      3.83565
	water   0.20000
	Amm      1.01658e+00
	N(0)     9.69238e-04
	N(3)     2.67776e-19
	N(5)     6.12238e-17
	O(0)     1.19915e-24
GAS_PHASE  64
	-pressure   8.999894e-01
	-volume   1.000000e+00
	-temperature   2.500000e+01
	Amm(g)            1.720488e-02
	N2(g)             8.827845e-01
END
END
SOLUTION 65
	units  mol/kgw
	temp   25.0
	pH     11.63273
	pe      3.83565
	water   0.20000
	Amm      1.01658e+00
	N(0)     9.69238e-04
	N(3)     2.67776e-19
	N(5)     6.12238e-17
	O(0)     1.19915e-24
GAS_PHASE  65
	-pressure   8.999894e-01
	-volume   1.000000e+00
	-temperature   2.500000e+01
	Amm(g)            1.720488e-02
	N2(g)             8.827845e-01
END
END
SOLUTION 66
	units  mol/kgw
	temp   25.0
	pH     11.63273
	pe      3.83565
	water   0.20000
	Amm      1.01658e+00
	N(0)     9.69238e-04
	N(3)     2.67776e-19
	N(5)     6.12238e-17
	O(0)     1.19915e-24
GAS_PHASE  66
	-pressure   8.999894e-01
	-volume   1.000000e+00
	-temperature   2.500000e+01
	Amm(g)            1.720488e-02
	N2(g)             8.827845e-01
END
END
SOLUTION 67
	units  mol/kgw
	temp   25.0
	pH     11.63273
	pe      3.83565
	water   0.20000
	Amm      1.01658e+00
	N(0)     9.69238e-04
	N(3)     2.67776e-19
	N(5)     6.12238e-17
	O(0)     1.19915e-24
GAS_PHASE  67
	-pressure   8.999894e-01
	-volume   1.000000e+00
	-temperature   2.500000e+01
	Amm(g)            1.720488e-02
	N2(g)             8.827845e-01
END
END
SOLUTION 68
	units  mol/kgw
	temp   25.0
	pH     11.63273
	pe      3.83565
	water   0.20000
	Amm      1.01658e+00
	N(0)     9.69238e-04
	N(3)     2.67776e-19
	N(5)     6.12238e-17
	O(0)     1.19915e-24
GAS_PHASE  68
	-pressure   8.999894e-01
	-volume   1.000000e+00
	-temperature   2.500000e+01
	Amm(g)            1.720488e-02
	N2(g)             8.827845e-01
END
END
SOLUTION 69
	units  mol/kgw
	temp   25.0
	pH     11.63273
	pe      3.83565
	water   0.20000
	Amm      1.01658e+00
	N(0)     9.69238e-04
	N(3)     2.67776e-19
	N(5)     6.12238e-17
	O(0)     1.19915e-24
GAS_PHASE  69
	-pressure   8.999894e-01
	-volume   1.000000e+00
	-temperature   2.500000e+01
	Amm(g)            1.720488e-02
	N2(g)             8.827845e-01
END
END
SOLUTION 70
	units  mol/kgw
	temp   25.0
	pH     11.63273
	pe      3.83565
	water   0.20000
	Amm      1.01658e+00
	N(0)     9.69238e-04
	N(3)     2.67776e-19
	N(5)     6.12238e-17
	O(0)     1.19915e-24
GAS_PHASE  70
	-pressure   8.999894e-01
	-volume   1.000000e+00
	-temperature   2.500000e+01
	Amm(g)            1.720488e-02
	N2(g)             8.827845e-01
END
END
SOLUTION 71
	units  mol/kgw
	temp   25.0
	pH     11.63273
	pe      3.83565
	water   0.20000
	Amm      1.01658e+00
	N(0)     9.69238e-04
	N(3)     2.67776e-19
	N(5)     6.12238e-17
	O(0)     1.19915e-24
GAS_PHASE  71
	-pressure   8.999894e-01
	-volume   1.000000e+00
	-temperature   2.500000e+01
	Amm(g)            1.720488e-02
	N2(g)             8.827845e-01
END
END
SOLUTION 72
	units  mol/kgw
	temp   25.0
	pH     11.63273
	pe      3.83565
	water   0.20000
	Amm      1.01658e+00
	N(0)     9.69238e-04
	N(3)     2.67776e-19
	N(5)     6.12238e-17
	O(0)     1.19915e-24
GAS_PHASE  72
	-pressure   8.999894e-01
	-volume   1.000000e+00
	-temperature   2.500000e+01
	Amm(g)            1.720488e-02
	N2(g)             8.827845e-01
END
END
SOLUTION 73
	units  mol/kgw
	temp   25.0
	pH     11.63273
	pe      3.83565
	water   0.20000
	Amm      1.01658e+00
	N(0)     9.69238e-04
	N(3)     2.67776e-19
	N(5)     6.12238e-17
	O(0)     1.19915e-24
GAS_PHASE  73
	-pressure   8.999894e-01
	-volume   1.000000e+00
	-temperature   2.500000e+01
	Amm(g)            1.720488e-02
	N2(g)             8.827845e-01
END
END
SOLUTION 74
	units  mol/kgw
	temp   25.0
	pH     11.63273
	pe      3.83565
	water   0.20000
	Amm      1.01658e+00
	N(0)     9.69238e-04
	N(3)     2.67776e-19
	N(5)     6.12238e-17
	O(0)     1.19915e-24
GAS_PHASE  74
	-pressure   8.999894e-01
	-volume   1.000000e+00
	-temperature   2.500000e+01
	Amm(g)            1.720488e-02
	N2(g)             8.827845e-01
END
END
SOLUTION 75
	units  mol/kgw
	temp   25.0
	pH     11.63273
	pe      3.83565
	water   0.20000
	Amm      1.01658e+00
	N(0)     9.69238e-04
	N(3)     2.67776e-19
	N(5)     6.12238e-17
	O(0)     1.19915e-24
GAS_PHASE  75
	-pressure   8.999894e-01
	-volume   1.000000e+00
	-temperature   2.500000e+01
	Amm(g)            1.720488e-02
	N2(g)             8.827845e-01
END
END
SOLUTION 76
	units  mol/kgw
	temp   25.0
	pH     11.63273
	pe      3.83565
	water   0.20000
	Amm      1.01658e+00
	N(0)     9.69238e-04
	N(3)     2.67776e-19
	N(5)     6.12238e-17
	O(0)     1.19915e-24
GAS_PHASE  76
	-pressure   8.999894e-01
	-volume   1.000000e+00
	-temperature   2.500000e+01
	Amm(g)            1.720488e-02
	N2(g)             8.827845e-01
END
END
SOLUTION 77
	units  mol/kgw
	temp   25.0
	pH     11.63273
	pe      3.83565
	water   0.20000
	Amm      1.01658e+00
	N(0)     9.69238e-04
	N(3)     2.67776e-19
	N(5)     6.12238e-17
	O(0)     1.19915e-24
GAS_PHASE  77
	-pressure   8.999894e-01
	-volume   1.000000e+00
	-temperature   2.500000e+01
	Amm(g)            1.720488e-02
	N2(g)             8.827845e-01
END
END
SOLUTION 78
	units  mol/kgw
	temp   25.0
	pH     11.63273
	pe      3.83565
	water   0.20000
	Amm      1.01658e+00
	N(0)     9.69238e-04
	N(3)     2.67776e-19
	N(5)     6.12238e-17
	O(0)     1.19915e-24
GAS_PHASE  78
	-pressure   8.999894e-01
	-volume   1.000000e+00
	-temperature   2.500000e+01
	Amm(g)            1.720488e-02
	N2(g)             8.827845e-01
END
END
SOLUTION 79
	units  mol/kgw
	temp   25.0
	pH     11.63273
	pe      3.83565
	water   0.20000
	Amm      1.01658e+00
	N(0)     9.69238e-04
	N(3)     2.67776e-19
	N(5)     6.12238e-17
	O(0)     1.19915e-24
GAS_PHASE  79
	-pressure   8.999894e-01
	-volume   1.000000e+00
	-temperature   2.500000e+01
	Amm(g)            1.720488e-02
	N2(g)             8.827845e-01
END
END
SOLUTION 80
	units  mol/kgw
	temp   25.0
	pH     11.63273
	pe      3.83565
	water   0.20000
	Amm      1.01658e+00
	N(0)     9.69238e-04
	N(3)     2.67776e-19
	N(5)     6.12238e-17
	O(0)     1.19915e-24
GAS_PHASE  80
	-pressure   8.999894e-01
	-volume   1.000000e+00
	-temperature   2.500000e+01
	Amm(g)            1.720488e-02
	N2(g)             8.827845e-01
END
END
SOLUTION 81
	units  mol/kgw
	temp   25.0
	pH     11.63273
	pe      3.83565
	water   0.20000
	Amm      1.01658e+00
	N(0)     9.69238e-04
	N(3)     2.67776e-19
	N(5)     6.12238e-17
	O(0)     1.19915e-24
GAS_PHASE  81
	-pressure   8.999894e-01
	-volume   1.000000e+00
	-temperature   2.500000e+01
	Amm(g)            1.720488e-02
	N2(g)             8.827845e-01
END
END
SOLUTION 82
	units  mol/kgw
	temp   25.0
	pH     11.63273